@<TRIPOS>MOLECULE
IMPHY001683
 76 81 0 0 0
SMALL
GASTEIGER

@<TRIPOS>ATOM
      1 O           7.8152   -1.5407    0.0000 O.3     1  UNL1       -0.3815
      2 O           8.2565   -0.7026    0.0000 O.3     1  UNL1       -0.3851
      3 O           6.7390   -1.8714    0.0000 O.3     1  UNL1       -0.3765
      4 O           4.9163    1.8904    0.0000 O.3     1  UNL1       -0.3912
      5 O           8.6327    1.6388    0.0000 O.3     1  UNL1       -0.4608
      6 O           9.0340    2.3483    0.0000 O.3     1  UNL1       -0.3793
      7 O           4.0503   -2.3448    0.0000 O.3     1  UNL1       -0.3824
      8 O           9.6297    0.2225    0.0000 O.2     1  UNL1       -0.2512
      9 N           3.7210    0.0613    0.0000 N.3     1  UNL1       -0.2955
     10 C           5.6676    0.4566    0.0000 C.3     1  UNL1        0.0242
     11 C           5.6676   -0.4110    0.0000 C.3     1  UNL1        0.0068
     12 C           4.6656    0.3505    0.0000 C.3     1  UNL1        0.0529
     13 C           6.3459    0.9975    0.0000 C.3     1  UNL1       -0.0218
     14 C           7.1918   -0.7589    0.0000 C.3     1  UNL1        0.1371
     15 C           7.1918    0.8044    0.0000 C.3     1  UNL1        0.0317
     16 C           7.5682    0.0228    0.0000 C.3     1  UNL1        0.1073
     17 C           6.3459   -0.9519    0.0000 C.3     1  UNL1        0.0952
     18 C           4.9163   -0.8448    0.0000 C.3     1  UNL1        0.0128
     19 C           4.9163    0.8904    0.0000 C.3     1  UNL1        0.0630
     20 C           6.2682    1.8616    0.0000 C.3     1  UNL1       -0.0405
     21 C           7.0659    2.2026    0.0000 C.3     1  UNL1        0.0231
     22 C           7.6367    1.5492    0.0000 C.3     1  UNL1        0.1140
     23 C           8.2131    0.2927    0.0000 C.3     1  UNL1        0.0060
     24 C           3.7210   -0.6906    0.0000 C.3     1  UNL1        0.0074
     25 C           4.1649   -0.4110    0.0000 C.3     1  UNL1       -0.0414
     26 C           8.2131    1.7772    0.0000 C.3     1  UNL1        0.0672
     27 C           4.1649    0.4566    0.0000 C.3     1  UNL1       -0.0256
     28 C           4.9163   -1.8448    0.0000 C.3     1  UNL1        0.0544
     29 C           2.9170    0.6560    0.0000 C.3     1  UNL1       -0.0035
     30 C           6.1391   -2.6716    0.0000 C.3     1  UNL1        0.0369
     31 C           2.0000    0.2571    0.0000 C.3     1  UNL1       -0.0523
     32 C           9.5401    1.2185    0.0000 C.2     1  UNL1        0.3042
     33 C           8.9498    3.3448    0.0000 C.3     1  UNL1        0.0368
     34 C           4.0503   -3.3448    0.0000 C.3     1  UNL1        0.0365
     35 C          10.3578    1.7941    0.0000 C.3     1  UNL1        0.0332
     36 H           5.6041   -1.2586    0.0000 H       1  UNL1        0.0340
     37 H           4.5417    0.9580    0.0000 H       1  UNL1        0.0499
     38 H           5.5643    1.3316    0.0000 H       1  UNL1        0.0312
     39 H           8.0409    0.7663    0.0000 H       1  UNL1        0.0368
     40 H           6.1455   -1.5386    0.0000 H       1  UNL1        0.0629
     41 H           5.4532    1.2004    0.0000 H       1  UNL1        0.0599
     42 H           6.0854    2.4540    0.0000 H       1  UNL1        0.0273
     43 H           5.6598    1.7418    0.0000 H       1  UNL1        0.0273
     44 H           7.0452    3.0523    0.0000 H       1  UNL1        0.0362
     45 H           7.8676    2.1246    0.0000 H       1  UNL1        0.0741
     46 H           8.3750   -0.3058    0.0000 H       1  UNL1        0.0319
     47 H           8.8277    0.3744    0.0000 H       1  UNL1        0.0319
     48 H           3.1015   -0.6640    0.0000 H       1  UNL1        0.0433
     49 H           3.6680   -1.3083    0.0000 H       1  UNL1        0.0433
     50 H           3.5544   -0.3033    0.0000 H       1  UNL1        0.0273
     51 H           3.9529   -0.9936    0.0000 H       1  UNL1        0.0273
     52 H           8.1349    2.3923    0.0000 H       1  UNL1        0.0601
     53 H           3.9529    1.0392    0.0000 H       1  UNL1        0.0290
     54 H           3.5544    0.3489    0.0000 H       1  UNL1        0.0290
     55 H           5.1283   -2.4274    0.0000 H       1  UNL1        0.0566
     56 H           5.5269   -1.7371    0.0000 H       1  UNL1        0.0566
     57 H           7.5887   -2.1178    0.0000 H       1  UNL1        0.2105
     58 H           8.8510   -0.8787    0.0000 H       1  UNL1        0.2103
     59 H           3.3666    1.0829    0.0000 H       1  UNL1        0.0424
     60 H           2.5747    1.1730    0.0000 H       1  UNL1        0.0424
     61 H           4.3793    2.2004    0.0000 H       1  UNL1        0.2098
     62 H           5.6430   -2.2997    0.0000 H       1  UNL1        0.0524
     63 H           5.7672   -3.1677    0.0000 H       1  UNL1        0.0524
     64 H           6.6352   -3.0435    0.0000 H       1  UNL1        0.0524
     65 H           1.7527    0.8256    0.0000 H       1  UNL1        0.0242
     66 H           1.4315    0.0098    0.0000 H       1  UNL1        0.0242
     67 H           2.2473   -0.3114    0.0000 H       1  UNL1        0.0242
     68 H           9.5676    3.3970    0.0000 H       1  UNL1        0.0524
     69 H           8.8976    3.9626    0.0000 H       1  UNL1        0.0524
     70 H           8.3320    3.2926    0.0000 H       1  UNL1        0.0524
     71 H           3.4303   -3.3448    0.0000 H       1  UNL1        0.0523
     72 H           4.0503   -3.9648    0.0000 H       1  UNL1        0.0523
     73 H           4.6703   -3.3448    0.0000 H       1  UNL1        0.0523
     74 H          10.7147    1.2871    0.0000 H       1  UNL1        0.0342
     75 H          10.8648    2.1510    0.0000 H       1  UNL1        0.0342
     76 H          10.0009    2.3011    0.0000 H       1  UNL1        0.0342
@<TRIPOS>BOND
     1    14     1    1
     2     1    57    1
     3    16     2    1
     4     2    58    1
     5    17     3    1
     6     3    30    1
     7    19     4    1
     8     4    61    1
     9    22     5    1
    10     5    32    1
    11    26     6    1
    12     6    33    1
    13     7    28    1
    14     7    34    1
    15     8    32    2
    16     9    12    1
    17     9    24    1
    18     9    29    1
    19    10    11    1
    20    10    12    1
    21    10    13    1
    22    10    19    1
    23    11    17    1
    24    11    18    1
    25    11    36    1
    26    12    14    1
    27    12    37    1
    28    13    15    1
    29    13    20    1
    30    13    38    1
    31    14    16    1
    32    14    17    1
    33    15    16    1
    34    15    22    1
    35    15    39    1
    36    16    23    1
    37    17    40    1
    38    18    24    1
    39    18    25    1
    40    18    28    1
    41    19    27    1
    42    19    41    1
    43    20    21    1
    44    20    42    1
    45    20    43    1
    46    21    22    1
    47    21    26    1
    48    21    44    1
    49    22    45    1
    50    23    26    1
    51    23    46    1
    52    23    47    1
    53    24    48    1
    54    24    49    1
    55    25    27    1
    56    25    50    1
    57    25    51    1
    58    26    52    1
    59    27    53    1
    60    27    54    1
    61    28    55    1
    62    28    56    1
    63    29    31    1
    64    29    59    1
    65    29    60    1
    66    30    62    1
    67    30    63    1
    68    30    64    1
    69    31    65    1
    70    31    66    1
    71    31    67    1
    72    32    35    1
    73    33    68    1
    74    33    69    1
    75    33    70    1
    76    34    71    1
    77    34    72    1
    78    34    73    1
    79    35    74    1
    80    35    75    1
    81    35    76    1
