@<TRIPOS>MOLECULE
IMPHY014458
 82 85 0 0 0
SMALL
GASTEIGER

@<TRIPOS>ATOM
      1 O          10.4586   -1.2115    0.0000 O.3     1  UNL1       -0.3914
      2 O           2.5357   -3.7639    0.0000 O.3     1  UNL1       -0.3912
      3 O          10.4749    1.7004    0.0000 O.3     1  UNL1       -0.4804
      4 O          10.8321    0.0056    0.0000 O.2     1  UNL1       -0.2507
      5 C           7.9288   -0.7115    0.0000 C.3     1  UNL1       -0.0170
      6 C           7.9288   -1.7115    0.0000 C.3     1  UNL1       -0.0027
      7 C           6.1968   -1.7115    0.0000 C.3     1  UNL1       -0.0137
      8 C           5.2868   -2.2184    0.0000 C.3     1  UNL1       -0.0218
      9 C           8.8750   -0.4068    0.0000 C.3     1  UNL1        0.0041
     10 C           7.0628   -2.2115    0.0000 C.2     1  UNL1       -0.0633
     11 C           5.2787   -3.2600    0.0000 C.3     1  UNL1       -0.0242
     12 C           7.0628   -0.2115    0.0000 C.3     1  UNL1       -0.0459
     13 C           8.8750   -2.0163    0.0000 C.3     1  UNL1       -0.0169
     14 C           6.1968   -0.7115    0.0000 C.3     1  UNL1       -0.0455
     15 C           9.4586   -1.2115    0.0000 C.3     1  UNL1        0.0601
     16 C           4.3433   -3.8097    0.0000 C.3     1  UNL1       -0.0053
     17 C           4.3599   -1.6543    0.0000 C.3     1  UNL1       -0.0444
     18 C           6.1808   -3.7808    0.0000 C.3     1  UNL1       -0.0306
     19 C           7.9288    0.2885    0.0000 C.3     1  UNL1       -0.0584
     20 C           7.9288   -2.7115    0.0000 C.3     1  UNL1       -0.0552
     21 C           7.0789   -3.2530    0.0000 C.2     1  UNL1       -0.0836
     22 C           9.1857    0.5437    0.0000 C.3     1  UNL1        0.0622
     23 C           3.4037   -3.2672    0.0000 C.3     1  UNL1        0.0606
     24 C           5.2945   -1.2184    0.0000 C.3     1  UNL1       -0.0587
     25 C           3.4120   -2.1822    0.0000 C.3     1  UNL1       -0.0258
     26 C           3.8467   -4.6777    0.0000 C.3     1  UNL1       -0.0572
     27 C           4.8466   -4.6738    0.0000 C.3     1  UNL1       -0.0572
     28 C           8.5179    1.2880    0.0000 C.3     1  UNL1       -0.0363
     29 C          10.1642    0.7499    0.0000 C.2     1  UNL1        0.3082
     30 C           8.8285    2.2385    0.0000 C.3     1  UNL1       -0.0338
     31 C           8.1607    2.9828    0.0000 C.2     1  UNL1       -0.0853
     32 C           8.4713    3.9334    0.0000 C.2     1  UNL1       -0.0796
     33 C           7.8035    4.6777    0.0000 C.3     1  UNL1       -0.0440
     34 C           9.4498    4.1396    0.0000 C.3     1  UNL1       -0.0440
     35 H           6.9329   -1.2865    0.0000 H       1  UNL1        0.0351
     36 H           9.4875   -0.3106    0.0000 H       1  UNL1        0.0339
     37 H           5.2820   -4.1100    0.0000 H       1  UNL1        0.0315
     38 H           7.4613    0.2634    0.0000 H       1  UNL1        0.0271
     39 H           6.6643    0.2634    0.0000 H       1  UNL1        0.0271
     40 H           8.6240   -2.5832    0.0000 H       1  UNL1        0.0299
     41 H           9.4124   -2.3255    0.0000 H       1  UNL1        0.0299
     42 H           5.9847   -0.1289    0.0000 H       1  UNL1        0.0271
     43 H           5.5862   -0.8192    0.0000 H       1  UNL1        0.0271
     44 H           9.7404   -0.6592    0.0000 H       1  UNL1        0.0596
     45 H           4.7681   -1.1877    0.0000 H       1  UNL1        0.0272
     46 H           3.9700   -1.1723    0.0000 H       1  UNL1        0.0272
     47 H           5.7835   -4.2568    0.0000 H       1  UNL1        0.0310
     48 H           6.5818   -4.2537    0.0000 H       1  UNL1        0.0310
     49 H           8.5488    0.2885    0.0000 H       1  UNL1        0.0235
     50 H           7.9288    0.9085    0.0000 H       1  UNL1        0.0235
     51 H           7.3088    0.2885    0.0000 H       1  UNL1        0.0235
     52 H           7.3088   -2.7115    0.0000 H       1  UNL1        0.0238
     53 H           7.9288   -3.3315    0.0000 H       1  UNL1        0.0238
     54 H           8.5488   -2.7115    0.0000 H       1  UNL1        0.0238
     55 H           7.6193   -3.5568    0.0000 H       1  UNL1        0.0572
     56 H           9.3783    1.1330    0.0000 H       1  UNL1        0.0417
     57 H           2.8686   -2.9541    0.0000 H       1  UNL1        0.0599
     58 H           5.9145   -1.2232    0.0000 H       1  UNL1        0.0235
     59 H           5.2993   -0.5984    0.0000 H       1  UNL1        0.0235
     60 H           4.6745   -1.2136    0.0000 H       1  UNL1        0.0235
     61 H           3.2075   -1.5970    0.0000 H       1  UNL1        0.0290
     62 H           2.8004   -2.2836    0.0000 H       1  UNL1        0.0290
     63 H           3.3085   -4.3697    0.0000 H       1  UNL1        0.0236
     64 H           3.5387   -5.2158    0.0000 H       1  UNL1        0.0236
     65 H           4.3848   -4.9856    0.0000 H       1  UNL1        0.0236
     66 H           4.3109   -4.9859    0.0000 H       1  UNL1        0.0236
     67 H           5.1587   -5.2095    0.0000 H       1  UNL1        0.0236
     68 H           5.3824   -4.3617    0.0000 H       1  UNL1        0.0236
     69 H           7.9709    1.5800    0.0000 H       1  UNL1        0.0276
     70 H           8.1353    0.8001    0.0000 H       1  UNL1        0.0276
     71 H          10.7687   -1.7485    0.0000 H       1  UNL1        0.2098
     72 H           2.0000   -3.4518    0.0000 H       1  UNL1        0.2098
     73 H           9.3754    1.9465    0.0000 H       1  UNL1        0.0308
     74 H           9.2111    2.7264    0.0000 H       1  UNL1        0.0308
     75 H          11.0815    1.8283    0.0000 H       1  UNL1        0.2951
     76 H           7.5540    2.8550    0.0000 H       1  UNL1        0.0571
     77 H           8.2650    5.0917    0.0000 H       1  UNL1        0.0274
     78 H           7.3894    5.1391    0.0000 H       1  UNL1        0.0274
     79 H           7.3420    4.2636    0.0000 H       1  UNL1        0.0274
     80 H           9.5777    3.5329    0.0000 H       1  UNL1        0.0274
     81 H          10.0565    4.2674    0.0000 H       1  UNL1        0.0274
     82 H           9.3220    4.7462    0.0000 H       1  UNL1        0.0274
@<TRIPOS>BOND
     1    15     1    1
     2     1    71    1
     3    23     2    1
     4     2    72    1
     5     3    29    1
     6     3    75    1
     7     4    29    2
     8     5     6    1
     9     5     9    1
    10     5    12    1
    11     5    19    1
    12     6    10    1
    13     6    13    1
    14     6    20    1
    15     7     8    1
    16     7    10    1
    17     7    14    1
    18     7    35    1
    19     8    11    1
    20     8    17    1
    21     8    24    1
    22     9    15    1
    23     9    22    1
    24     9    36    1
    25    10    21    2
    26    11    16    1
    27    11    18    1
    28    11    37    1
    29    12    14    1
    30    12    38    1
    31    12    39    1
    32    13    15    1
    33    13    40    1
    34    13    41    1
    35    14    42    1
    36    14    43    1
    37    15    44    1
    38    16    23    1
    39    16    26    1
    40    16    27    1
    41    17    25    1
    42    17    45    1
    43    17    46    1
    44    18    21    1
    45    18    47    1
    46    18    48    1
    47    19    49    1
    48    19    50    1
    49    19    51    1
    50    20    52    1
    51    20    53    1
    52    20    54    1
    53    21    55    1
    54    22    28    1
    55    22    29    1
    56    22    56    1
    57    23    25    1
    58    23    57    1
    59    24    58    1
    60    24    59    1
    61    24    60    1
    62    25    61    1
    63    25    62    1
    64    26    63    1
    65    26    64    1
    66    26    65    1
    67    27    66    1
    68    27    67    1
    69    27    68    1
    70    28    30    1
    71    28    69    1
    72    28    70    1
    73    30    31    1
    74    30    73    1
    75    30    74    1
    76    31    32    2
    77    31    76    1
    78    32    33    1
    79    32    34    1
    80    33    77    1
    81    33    78    1
    82    33    79    1
    83    34    80    1
    84    34    81    1
    85    34    82    1
