@<TRIPOS>MOLECULE
IMPHY003038
 23 24 0 0 0
SMALL
GASTEIGER

@<TRIPOS>ATOM
      1 N           2.5896    1.3184    0.0000 N.3     1  UNL1       -0.3093
      2 N           4.2647   -1.7694    0.0000 N.ar    1  UNL1       -0.2629
      3 C           3.3987    0.7306    0.0000 C.3     1  UNL1        0.0343
      4 C           4.2077    1.3184    0.0000 C.3     1  UNL1       -0.0322
      5 C           3.8987    2.2694    0.0000 C.3     1  UNL1       -0.0387
      6 C           2.8987    2.2694    0.0000 C.3     1  UNL1       -0.0035
      7 C           3.3987   -0.2694    0.0000 C.ar    1  UNL1       -0.0124
      8 C           2.5326   -0.7694    0.0000 C.ar    1  UNL1       -0.0542
      9 C           4.2647   -0.7694    0.0000 C.ar    1  UNL1        0.0322
     10 C           2.5326   -1.7694    0.0000 C.ar    1  UNL1       -0.0433
     11 C           3.3987   -2.2694    0.0000 C.ar    1  UNL1        0.0276
     12 H           3.9511    0.4491    0.0000 H       1  UNL1        0.0510
     13 H           4.5177    0.7814    0.0000 H       1  UNL1        0.0284
     14 H           4.7741    1.5705    0.0000 H       1  UNL1        0.0284
     15 H           4.5051    2.3983    0.0000 H       1  UNL1        0.0278
     16 H           3.8339    2.8860    0.0000 H       1  UNL1        0.0278
     17 H           2.9635    2.8860    0.0000 H       1  UNL1        0.0424
     18 H           2.2922    2.3983    0.0000 H       1  UNL1        0.0424
     19 H           2.0000    1.1268    0.0000 H       1  UNL1        0.1225
     20 H           1.9957   -0.4594    0.0000 H       1  UNL1        0.0622
     21 H           4.8016   -0.4594    0.0000 H       1  UNL1        0.0833
     22 H           1.9957   -2.0794    0.0000 H       1  UNL1        0.0633
     23 H           3.3987   -2.8894    0.0000 H       1  UNL1        0.0829
@<TRIPOS>BOND
     1     1     3    1
     2     1     6    1
     3     1    19    1
     4     2     9   ar
     5     2    11   ar
     6     3     4    1
     7     3     7    1
     8     3    12    1
     9     4     5    1
    10     4    13    1
    11     4    14    1
    12     5     6    1
    13     5    15    1
    14     5    16    1
    15     6    17    1
    16     6    18    1
    17     7     8   ar
    18     7     9   ar
    19     8    10   ar
    20     8    20    1
    21     9    21    1
    22    10    11   ar
    23    10    22    1
    24    11    23    1
