@<TRIPOS>MOLECULE
IMPHY015180
 24 24 0 0 0
SMALL
GASTEIGER

@<TRIPOS>ATOM
      1 C           3.0878    0.4239    0.0000 C.3     1  UNL1       -0.0410
      2 C           2.5878   -1.1149    0.0000 C.3     1  UNL1       -0.0436
      3 C           2.2788   -0.1639    0.0000 C.3     1  UNL1       -0.0476
      4 C           3.8968   -0.1639    0.0000 C.3     1  UNL1       -0.0500
      5 C           3.5878   -1.1149    0.0000 C.3     1  UNL1       -0.0502
      6 C           3.0878    1.4239    0.0000 C.3     1  UNL1       -0.0531
      7 C           2.0000   -1.9239    0.0000 C.3     1  UNL1       -0.0624
      8 C           3.9538    1.9239    0.0000 C.3     1  UNL1       -0.0650
      9 H           3.6402    0.7054    0.0000 H       1  UNL1        0.0301
     10 H           1.9754   -1.0179    0.0000 H       1  UNL1        0.0298
     11 H           1.9688    0.3731    0.0000 H       1  UNL1        0.0271
     12 H           1.7124   -0.4160    0.0000 H       1  UNL1        0.0271
     13 H           4.4632   -0.4160    0.0000 H       1  UNL1        0.0268
     14 H           4.2068    0.3731    0.0000 H       1  UNL1        0.0268
     15 H           3.5230   -1.7315    0.0000 H       1  UNL1        0.0268
     16 H           4.1942   -1.2438    0.0000 H       1  UNL1        0.0268
     17 H           2.8757    2.0065    0.0000 H       1  UNL1        0.0265
     18 H           2.4772    1.3163    0.0000 H       1  UNL1        0.0265
     19 H           1.4984   -1.5595    0.0000 H       1  UNL1        0.0232
     20 H           1.6356   -2.4255    0.0000 H       1  UNL1        0.0232
     21 H           2.5016   -2.2884    0.0000 H       1  UNL1        0.0232
     22 H           4.2638    1.3870    0.0000 H       1  UNL1        0.0230
     23 H           4.4908    2.2339    0.0000 H       1  UNL1        0.0230
     24 H           3.6438    2.4609    0.0000 H       1  UNL1        0.0230
@<TRIPOS>BOND
     1     1     3    1
     2     1     4    1
     3     1     6    1
     4     1     9    1
     5     2     3    1
     6     2     5    1
     7     2     7    1
     8     2    10    1
     9     3    11    1
    10     3    12    1
    11     4     5    1
    12     4    13    1
    13     4    14    1
    14     5    15    1
    15     5    16    1
    16     6     8    1
    17     6    17    1
    18     6    18    1
    19     7    19    1
    20     7    20    1
    21     7    21    1
    22     8    22    1
    23     8    23    1
    24     8    24    1
