@<TRIPOS>MOLECULE
IMPHY017797
 19 19 0 0 0
SMALL
GASTEIGER

@<TRIPOS>ATOM
      1 N           5.4641   -1.0000    0.0000 N.ar    1  UNL1       -0.2569
      2 N           5.4641    1.0000    0.0000 N.ar    1  UNL1       -0.2600
      3 C           3.7320   -1.0000    0.0000 C.3     1  UNL1       -0.0092
      4 C           2.8660   -0.5000    0.0000 C.3     1  UNL1       -0.0504
      5 C           4.5981   -0.5000    0.0000 C.ar    1  UNL1        0.0593
      6 C           2.0000   -1.0000    0.0000 C.3     1  UNL1       -0.0649
      7 C           4.5981    0.5000    0.0000 C.ar    1  UNL1        0.0488
      8 C           6.3301   -0.5000    0.0000 C.ar    1  UNL1        0.0460
      9 C           6.3301    0.5000    0.0000 C.ar    1  UNL1        0.0457
     10 H           3.3335   -1.4750    0.0000 H       1  UNL1        0.0329
     11 H           4.1306   -1.4750    0.0000 H       1  UNL1        0.0329
     12 H           3.2646   -0.0251    0.0000 H       1  UNL1        0.0266
     13 H           2.4675   -0.0251    0.0000 H       1  UNL1        0.0266
     14 H           1.6900   -0.4631    0.0000 H       1  UNL1        0.0230
     15 H           1.4631   -1.3100    0.0000 H       1  UNL1        0.0230
     16 H           2.3100   -1.5369    0.0000 H       1  UNL1        0.0230
     17 H           4.0611    0.8100    0.0000 H       1  UNL1        0.0848
     18 H           6.8671   -0.8100    0.0000 H       1  UNL1        0.0845
     19 H           6.8671    0.8100    0.0000 H       1  UNL1        0.0845
@<TRIPOS>BOND
     1     1     5   ar
     2     1     8   ar
     3     2     7   ar
     4     2     9   ar
     5     3     4    1
     6     3     5    1
     7     3    10    1
     8     3    11    1
     9     4     6    1
    10     4    12    1
    11     4    13    1
    12     5     7   ar
    13     6    14    1
    14     6    15    1
    15     6    16    1
    16     7    17    1
    17     8     9   ar
    18     8    18    1
    19     9    19    1
