@<TRIPOS>MOLECULE
IMPHY001692
 36 37 0 0 0
SMALL
GASTEIGER

@<TRIPOS>ATOM
      1 O           2.5369   -0.8100    0.0000 O.3     1  UNL1       -0.5064
      2 O           4.2690   -3.8100    0.0000 O.3     1  UNL1       -0.4950
      3 O           4.2690    2.1900    0.0000 O.2     1  UNL1       -0.2920
      4 O           8.5991    3.6900    0.0000 O.3     1  UNL1       -0.5068
      5 C           4.2690    0.1900    0.0000 C.3     1  UNL1       -0.0172
      6 C           5.1350    0.6900    0.0000 C.3     1  UNL1        0.0145
      7 C           4.2690   -0.8100    0.0000 C.ar    1  UNL1       -0.0053
      8 C           5.1350    1.6900    0.0000 C.2     1  UNL1        0.1635
      9 C           3.4030   -1.3100    0.0000 C.ar    1  UNL1        0.1235
     10 C           5.1350   -1.3100    0.0000 C.ar    1  UNL1       -0.0517
     11 C           6.0010    2.1900    0.0000 C.ar    1  UNL1        0.0176
     12 C           3.4030   -2.3100    0.0000 C.ar    1  UNL1        0.0218
     13 C           5.1350   -2.3100    0.0000 C.ar    1  UNL1       -0.0195
     14 C           4.2690   -2.8100    0.0000 C.ar    1  UNL1        0.1236
     15 C           6.8671    1.6900    0.0000 C.ar    1  UNL1       -0.0478
     16 C           6.0010    3.1900    0.0000 C.ar    1  UNL1       -0.0478
     17 C           7.7331    2.1900    0.0000 C.ar    1  UNL1       -0.0195
     18 C           6.8671    3.6900    0.0000 C.ar    1  UNL1       -0.0195
     19 C           7.7331    3.1900    0.0000 C.ar    1  UNL1        0.1169
     20 C           5.1350   -4.3100    0.0000 C.3     1  UNL1        0.0788
     21 H           4.0569    0.7726    0.0000 H       1  UNL1        0.0318
     22 H           3.6584    0.0823    0.0000 H       1  UNL1        0.0318
     23 H           5.3471    0.1074    0.0000 H       1  UNL1        0.0348
     24 H           5.7456    0.7977    0.0000 H       1  UNL1        0.0348
     25 H           5.6720   -1.0000    0.0000 H       1  UNL1        0.0623
     26 H           2.8660   -2.6200    0.0000 H       1  UNL1        0.0691
     27 H           5.6720   -2.6200    0.0000 H       1  UNL1        0.0654
     28 H           6.8671    1.0700    0.0000 H       1  UNL1        0.0626
     29 H           5.4641    3.5000    0.0000 H       1  UNL1        0.0626
     30 H           8.2700    1.8800    0.0000 H       1  UNL1        0.0654
     31 H           6.8671    4.3100    0.0000 H       1  UNL1        0.0654
     32 H           2.0000   -1.1200    0.0000 H       1  UNL1        0.2921
     33 H           4.8250   -4.8469    0.0000 H       1  UNL1        0.0660
     34 H           5.6720   -4.6200    0.0000 H       1  UNL1        0.0660
     35 H           5.4450   -3.7731    0.0000 H       1  UNL1        0.0660
     36 H           8.5991    4.3100    0.0000 H       1  UNL1        0.2921
@<TRIPOS>BOND
     1     1     9    1
     2     1    32    1
     3     2    14    1
     4     2    20    1
     5     3     8    2
     6     4    19    1
     7     4    36    1
     8     5     6    1
     9     5     7    1
    10     5    21    1
    11     5    22    1
    12     6     8    1
    13     6    23    1
    14     6    24    1
    15     7     9   ar
    16     7    10   ar
    17     8    11    1
    18     9    12   ar
    19    10    13   ar
    20    10    25    1
    21    11    15   ar
    22    11    16   ar
    23    12    14   ar
    24    12    26    1
    25    13    14   ar
    26    13    27    1
    27    15    17   ar
    28    15    28    1
    29    16    18   ar
    30    16    29    1
    31    17    19   ar
    32    17    30    1
    33    18    19   ar
    34    18    31    1
    35    20    33    1
    36    20    34    1
    37    20    35    1
