@<TRIPOS>MOLECULE
IMPHY017410
 36 35 0 0 0
SMALL
GASTEIGER

@<TRIPOS>ATOM
      1 O           7.1962    0.4400    0.0000 O.3     1  UNL1       -0.4646
      2 O           6.3301   -1.0600    0.0000 O.2     1  UNL1       -0.2509
      3 C           4.5981   -0.0600    0.0000 C.3     1  UNL1       -0.0430
      4 C           3.7320    0.4400    0.0000 C.3     1  UNL1       -0.0528
      5 C           5.4641    0.4400    0.0000 C.3     1  UNL1        0.0449
      6 C           2.8660   -0.0600    0.0000 C.3     1  UNL1       -0.0559
      7 C           8.9282    0.4400    0.0000 C.3     1  UNL1       -0.0151
      8 C           8.0622   -0.0600    0.0000 C.3     1  UNL1        0.0927
      9 C           6.3301   -0.0600    0.0000 C.2     1  UNL1        0.3071
     10 C           2.0000    0.4400    0.0000 C.3     1  UNL1       -0.0653
     11 C           9.7942   -0.0600    0.0000 C.3     1  UNL1       -0.0317
     12 C          10.6603    0.4400    0.0000 C.2     1  UNL1       -0.0881
     13 C          11.5263   -0.0600    0.0000 C.2     1  UNL1       -0.0910
     14 C          12.3923    0.4400    0.0000 C.3     1  UNL1       -0.0468
     15 H           4.1996   -0.5349    0.0000 H       1  UNL1        0.0270
     16 H           4.9966   -0.5349    0.0000 H       1  UNL1        0.0270
     17 H           4.1306    0.9149    0.0000 H       1  UNL1        0.0265
     18 H           3.3335    0.9149    0.0000 H       1  UNL1        0.0265
     19 H           5.8626    0.9149    0.0000 H       1  UNL1        0.0377
     20 H           5.0656    0.9149    0.0000 H       1  UNL1        0.0377
     21 H           2.4675   -0.5349    0.0000 H       1  UNL1        0.0263
     22 H           3.2646   -0.5349    0.0000 H       1  UNL1        0.0263
     23 H           9.3267    0.9149    0.0000 H       1  UNL1        0.0301
     24 H           8.5297    0.9149    0.0000 H       1  UNL1        0.0301
     25 H           7.6636   -0.5349    0.0000 H       1  UNL1        0.0697
     26 H           8.4607   -0.5349    0.0000 H       1  UNL1        0.0697
     27 H           9.3957   -0.5349    0.0000 H       1  UNL1        0.0308
     28 H          10.1928   -0.5349    0.0000 H       1  UNL1        0.0308
     29 H           2.3100    0.9769    0.0000 H       1  UNL1        0.0230
     30 H           1.4631    0.7500    0.0000 H       1  UNL1        0.0230
     31 H           1.6900   -0.0969    0.0000 H       1  UNL1        0.0230
     32 H          10.6603    1.0600    0.0000 H       1  UNL1        0.0569
     33 H          11.5263   -0.6800    0.0000 H       1  UNL1        0.0566
     34 H          12.7023   -0.0969    0.0000 H       1  UNL1        0.0272
     35 H          12.9292    0.7500    0.0000 H       1  UNL1        0.0272
     36 H          12.0823    0.9769    0.0000 H       1  UNL1        0.0272
@<TRIPOS>BOND
     1     1     8    1
     2     1     9    1
     3     2     9    2
     4     3     4    1
     5     3     5    1
     6     3    15    1
     7     3    16    1
     8     4     6    1
     9     4    17    1
    10     4    18    1
    11     5     9    1
    12     5    19    1
    13     5    20    1
    14     6    10    1
    15     6    21    1
    16     6    22    1
    17     7     8    1
    18     7    11    1
    19     7    23    1
    20     7    24    1
    21     8    25    1
    22     8    26    1
    23    10    29    1
    24    10    30    1
    25    10    31    1
    26    11    12    1
    27    11    27    1
    28    11    28    1
    29    12    13    2
    30    12    32    1
    31    13    14    1
    32    13    33    1
    33    14    34    1
    34    14    35    1
    35    14    36    1
