@<TRIPOS>MOLECULE
IMPHY007906
 31 32 0 0 0
SMALL
GASTEIGER

@<TRIPOS>ATOM
      1 O           7.2241   -1.9747    0.0000 O.2     1  UNL1       -0.4220
      2 O           3.7320   -1.9400    0.0000 O.3     1  UNL1       -0.5064
      3 O           8.9942   -1.9642    0.0000 O.2     1  UNL1       -0.2452
      4 C           4.5981   -0.4400    0.0000 C.ar    1  UNL1       -0.0014
      5 C           3.7320    0.0600    0.0000 C.3     1  UNL1       -0.0058
      6 C           6.3301   -0.4400    0.0000 C.ar    1  UNL1        0.0181
      7 C           5.4641    0.0600    0.0000 C.ar    1  UNL1       -0.0441
      8 C           4.5981   -1.4400    0.0000 C.ar    1  UNL1        0.1238
      9 C           6.3301   -1.4400    0.0000 C.ar    1  UNL1        0.1425
     10 C           5.4641   -1.9400    0.0000 C.ar    1  UNL1        0.0231
     11 C           3.7320    1.0600    0.0000 C.2     1  UNL1       -0.0809
     12 C           2.8660    1.5600    0.0000 C.2     1  UNL1       -0.0793
     13 C           7.2241    0.0947    0.0000 C.ar    1  UNL1       -0.0443
     14 C           8.1301   -0.4192    0.0000 C.ar    1  UNL1        0.0236
     15 C           2.8660    2.5600    0.0000 C.3     1  UNL1       -0.0440
     16 C           2.0000    1.0600    0.0000 C.3     1  UNL1       -0.0440
     17 C           8.1301   -1.4608    0.0000 C.ar    1  UNL1        0.3372
     18 H           3.1215    0.1677    0.0000 H       1  UNL1        0.0357
     19 H           3.5200   -0.5226    0.0000 H       1  UNL1        0.0357
     20 H           5.4641    0.6800    0.0000 H       1  UNL1        0.0629
     21 H           5.4641   -2.5600    0.0000 H       1  UNL1        0.0691
     22 H           4.2690    1.3700    0.0000 H       1  UNL1        0.0575
     23 H           7.2169    0.7146    0.0000 H       1  UNL1        0.0627
     24 H           8.6659   -0.1071    0.0000 H       1  UNL1        0.0689
     25 H           3.4860    2.5600    0.0000 H       1  UNL1        0.0274
     26 H           2.8660    3.1800    0.0000 H       1  UNL1        0.0274
     27 H           2.2460    2.5600    0.0000 H       1  UNL1        0.0274
     28 H           1.6900    1.5969    0.0000 H       1  UNL1        0.0274
     29 H           1.4631    0.7500    0.0000 H       1  UNL1        0.0274
     30 H           2.3100    0.5231    0.0000 H       1  UNL1        0.0274
     31 H           3.7320   -2.5600    0.0000 H       1  UNL1        0.2921
@<TRIPOS>BOND
     1     1     9   ar
     2     1    17   ar
     3     2     8    1
     4     2    31    1
     5     3    17    2
     6     4     5    1
     7     4     7   ar
     8     4     8   ar
     9     5    11    1
    10     5    18    1
    11     5    19    1
    12     6     7   ar
    13     6     9   ar
    14     6    13   ar
    15     7    20    1
    16     8    10   ar
    17     9    10   ar
    18    10    21    1
    19    11    12    2
    20    11    22    1
    21    12    15    1
    22    12    16    1
    23    13    14   ar
    24    13    23    1
    25    14    17   ar
    26    14    24    1
    27    15    25    1
    28    15    26    1
    29    15    27    1
    30    16    28    1
    31    16    29    1
    32    16    30    1
