@<TRIPOS>MOLECULE
IMPHY007893
 42 45 0 0 0
SMALL
GASTEIGER

@<TRIPOS>ATOM
      1 O           5.5301   -1.2602    0.0000 O.2     1  UNL1       -0.4213
      2 O           5.5301    1.7398    0.0000 O.3     1  UNL1       -0.4934
      3 O           9.9404    0.4351    0.0000 O.3     1  UNL1       -0.4526
      4 O           9.9404    2.0445    0.0000 O.3     1  UNL1       -0.4526
      5 O           3.7817    1.7744    0.0000 O.3     1  UNL1       -0.4942
      6 O           2.0000   -1.2844    0.0000 O.3     1  UNL1       -0.4949
      7 O           7.2622   -1.2602    0.0000 O.2     1  UNL1       -0.2444
      8 C           6.3961    0.2398    0.0000 C.ar    1  UNL1        0.1089
      9 C           4.6641    0.2398    0.0000 C.ar    1  UNL1        0.1015
     10 C           5.5301    0.7398    0.0000 C.ar    1  UNL1        0.1488
     11 C           7.2622    0.7398    0.0000 C.ar    1  UNL1       -0.0038
     12 C           4.6641   -0.7602    0.0000 C.ar    1  UNL1        0.1496
     13 C           3.7702    0.7744    0.0000 C.ar    1  UNL1        0.1378
     14 C           8.1282    0.2398    0.0000 C.ar    1  UNL1       -0.0081
     15 C           8.9942    0.7398    0.0000 C.ar    1  UNL1        0.1668
     16 C           6.3961   -0.7602    0.0000 C.ar    1  UNL1        0.3486
     17 C           7.2622    1.7398    0.0000 C.ar    1  UNL1       -0.0500
     18 C           8.9942    1.7398    0.0000 C.ar    1  UNL1        0.1663
     19 C           3.7702   -1.2949    0.0000 C.ar    1  UNL1        0.0234
     20 C           8.1282    2.2398    0.0000 C.ar    1  UNL1       -0.0156
     21 C           2.8641    0.2606    0.0000 C.ar    1  UNL1        0.0227
     22 C           2.8641   -0.7810    0.0000 C.ar    1  UNL1        0.1271
     23 C          10.5241    1.2398    0.0000 C.3     1  UNL1        0.2332
     24 C           4.6641    2.2398    0.0000 C.3     1  UNL1        0.0789
     25 C           2.9215    2.2844    0.0000 C.3     1  UNL1        0.0788
     26 C           2.0038   -2.2844    0.0000 C.3     1  UNL1        0.0788
     27 H           8.1282   -0.3802    0.0000 H       1  UNL1        0.0661
     28 H           6.7252    2.0498    0.0000 H       1  UNL1        0.0625
     29 H           3.7773   -1.9148    0.0000 H       1  UNL1        0.0691
     30 H           8.1282    2.8598    0.0000 H       1  UNL1        0.0655
     31 H           2.3284    0.5727    0.0000 H       1  UNL1        0.0691
     32 H          10.9849    0.8251    0.0000 H       1  UNL1        0.1166
     33 H          10.9849    1.6545    0.0000 H       1  UNL1        0.1166
     34 H           4.9741    2.7767    0.0000 H       1  UNL1        0.0660
     35 H           4.1272    2.5498    0.0000 H       1  UNL1        0.0660
     36 H           4.3541    1.7028    0.0000 H       1  UNL1        0.0660
     37 H           3.2377    2.8177    0.0000 H       1  UNL1        0.0660
     38 H           2.3882    2.6006    0.0000 H       1  UNL1        0.0660
     39 H           2.6054    1.7510    0.0000 H       1  UNL1        0.0660
     40 H           1.3839   -2.2868    0.0000 H       1  UNL1        0.0660
     41 H           2.0062   -2.9044    0.0000 H       1  UNL1        0.0660
     42 H           2.6238   -2.2820    0.0000 H       1  UNL1        0.0660
@<TRIPOS>BOND
     1     1    12   ar
     2     1    16   ar
     3     2    10    1
     4     2    24    1
     5     3    15    1
     6     3    23    1
     7     4    18    1
     8     4    23    1
     9     5    13    1
    10     5    25    1
    11     6    22    1
    12     6    26    1
    13     7    16    2
    14     8    10   ar
    15     8    11    1
    16     8    16   ar
    17     9    10   ar
    18     9    12   ar
    19     9    13   ar
    20    11    14   ar
    21    11    17   ar
    22    12    19   ar
    23    13    21   ar
    24    14    15   ar
    25    14    27    1
    26    15    18   ar
    27    17    20   ar
    28    17    28    1
    29    18    20   ar
    30    19    22   ar
    31    19    29    1
    32    20    30    1
    33    21    22   ar
    34    21    31    1
    35    23    32    1
    36    23    33    1
    37    24    34    1
    38    24    35    1
    39    24    36    1
    40    25    37    1
    41    25    38    1
    42    25    39    1
    43    26    40    1
    44    26    41    1
    45    26    42    1
