@<TRIPOS>MOLECULE
IMPHY009762
 29 28 0 0 0
SMALL
GASTEIGER

@<TRIPOS>ATOM
      1 O           3.7320    0.7500    0.0000 O.3     1  UNL1       -0.4648
      2 O           2.8660   -0.7500    0.0000 O.2     1  UNL1       -0.2512
      3 C           7.1962    0.7500    0.0000 C.3     1  UNL1       -0.0530
      4 C           6.3301    0.2500    0.0000 C.3     1  UNL1       -0.0500
      5 C           8.0622    0.2500    0.0000 C.3     1  UNL1       -0.0533
      6 C           5.4641    0.7500    0.0000 C.3     1  UNL1       -0.0185
      7 C           8.9282    0.7500    0.0000 C.3     1  UNL1       -0.0559
      8 C           4.5981    0.2500    0.0000 C.3     1  UNL1        0.0924
      9 C           9.7942    0.2500    0.0000 C.3     1  UNL1       -0.0653
     10 C           2.8660    0.2500    0.0000 C.2     1  UNL1        0.3039
     11 C           2.0000    0.7500    0.0000 C.3     1  UNL1        0.0332
     12 H           7.5947    1.2250    0.0000 H       1  UNL1        0.0265
     13 H           6.7976    1.2250    0.0000 H       1  UNL1        0.0265
     14 H           5.9316   -0.2249    0.0000 H       1  UNL1        0.0266
     15 H           6.7287   -0.2249    0.0000 H       1  UNL1        0.0266
     16 H           7.6636   -0.2249    0.0000 H       1  UNL1        0.0265
     17 H           8.4607   -0.2249    0.0000 H       1  UNL1        0.0265
     18 H           5.8626    1.2250    0.0000 H       1  UNL1        0.0298
     19 H           5.0656    1.2250    0.0000 H       1  UNL1        0.0298
     20 H           9.3267    1.2250    0.0000 H       1  UNL1        0.0263
     21 H           8.5297    1.2250    0.0000 H       1  UNL1        0.0263
     22 H           4.1996   -0.2249    0.0000 H       1  UNL1        0.0697
     23 H           4.9966   -0.2249    0.0000 H       1  UNL1        0.0697
     24 H           9.4842   -0.2869    0.0000 H       1  UNL1        0.0230
     25 H          10.3312   -0.0600    0.0000 H       1  UNL1        0.0230
     26 H          10.1042    0.7869    0.0000 H       1  UNL1        0.0230
     27 H           2.3100    1.2869    0.0000 H       1  UNL1        0.0342
     28 H           1.4631    1.0600    0.0000 H       1  UNL1        0.0342
     29 H           1.6900    0.2131    0.0000 H       1  UNL1        0.0342
@<TRIPOS>BOND
     1     1     8    1
     2     1    10    1
     3     2    10    2
     4     3     4    1
     5     3     5    1
     6     3    12    1
     7     3    13    1
     8     4     6    1
     9     4    14    1
    10     4    15    1
    11     5     7    1
    12     5    16    1
    13     5    17    1
    14     6     8    1
    15     6    18    1
    16     6    19    1
    17     7     9    1
    18     7    20    1
    19     7    21    1
    20     8    22    1
    21     8    23    1
    22     9    24    1
    23     9    25    1
    24     9    26    1
    25    10    11    1
    26    11    27    1
    27    11    28    1
    28    11    29    1
