@<TRIPOS>MOLECULE
IMPHY012122
 13 13 0 0 0
SMALL
GASTEIGER

@<TRIPOS>ATOM
      1 O           3.3660   -0.9330    0.0000 O.3     1  UNL1       -0.3688
      2 C           2.8660   -0.0670    0.0000 C.3     1  UNL1        0.0873
      3 C           3.8660   -0.0670    0.0000 C.3     1  UNL1        0.0769
      4 C           2.8660    0.9330    0.0000 C.3     1  UNL1       -0.0339
      5 C           2.0000   -0.5670    0.0000 C.3     1  UNL1       -0.0339
      6 H           4.4486   -0.2790    0.0000 H       1  UNL1        0.0588
      7 H           3.9737    0.5436    0.0000 H       1  UNL1        0.0588
      8 H           3.4860    0.9330    0.0000 H       1  UNL1        0.0258
      9 H           2.8660    1.5530    0.0000 H       1  UNL1        0.0258
     10 H           2.2460    0.9330    0.0000 H       1  UNL1        0.0258
     11 H           1.6900   -0.0301    0.0000 H       1  UNL1        0.0258
     12 H           1.4631   -0.8770    0.0000 H       1  UNL1        0.0258
     13 H           2.3100   -1.1039    0.0000 H       1  UNL1        0.0258
@<TRIPOS>BOND
     1     1     2    1
     2     1     3    1
     3     2     3    1
     4     2     4    1
     5     2     5    1
     6     3     6    1
     7     3     7    1
     8     4     8    1
     9     4     9    1
    10     4    10    1
    11     5    11    1
    12     5    12    1
    13     5    13    1
