@<TRIPOS>MOLECULE
IMPHY001244
 46 47 0 0 0
SMALL
GASTEIGER

@<TRIPOS>ATOM
      1 O           3.7320   -0.7500    0.0000 O.3     1  UNL1       -0.5056
      2 O           5.4641   -3.7500    0.0000 O.3     1  UNL1       -0.5064
      3 O           4.5981    0.7500    0.0000 O.2     1  UNL1       -0.2831
      4 O           7.1962    0.2500    0.0000 O.2     1  UNL1       -0.2831
      5 O           6.3301    4.7500    0.0000 O.3     1  UNL1       -0.4950
      6 O           8.0622    1.7500    0.0000 O.3     1  UNL1       -0.5059
      7 C           4.5981   -2.2500    0.0000 C.ar    1  UNL1        0.0398
      8 C           3.7320   -2.7500    0.0000 C.3     1  UNL1       -0.0023
      9 C           4.5981   -1.2500    0.0000 C.ar    1  UNL1        0.1347
     10 C           5.4641   -0.7500    0.0000 C.ar    1  UNL1        0.0674
     11 C           5.4641   -2.7500    0.0000 C.ar    1  UNL1        0.1238
     12 C           3.7320   -3.7500    0.0000 C.2     1  UNL1       -0.0807
     13 C           6.3301   -1.2500    0.0000 C.ar    1  UNL1       -0.0438
     14 C           6.3301   -2.2500    0.0000 C.ar    1  UNL1       -0.0190
     15 C           5.4641    0.2500    0.0000 C.2     1  UNL1        0.2365
     16 C           2.8660   -4.2500    0.0000 C.2     1  UNL1       -0.0793
     17 C           6.3301    1.7500    0.0000 C.ar    1  UNL1        0.0671
     18 C           6.3301    0.7500    0.0000 C.2     1  UNL1        0.2365
     19 C           7.1962    2.2500    0.0000 C.ar    1  UNL1        0.1312
     20 C           5.4641    2.2500    0.0000 C.ar    1  UNL1       -0.0438
     21 C           2.8660   -5.2500    0.0000 C.3     1  UNL1       -0.0440
     22 C           2.0000   -3.7500    0.0000 C.3     1  UNL1       -0.0440
     23 C           7.1962    3.2500    0.0000 C.ar    1  UNL1        0.0222
     24 C           6.3301    3.7500    0.0000 C.ar    1  UNL1        0.1236
     25 C           5.4641    3.2500    0.0000 C.ar    1  UNL1       -0.0190
     26 C           5.4641    5.2500    0.0000 C.3     1  UNL1        0.0788
     27 H           3.5200   -2.1674    0.0000 H       1  UNL1        0.0358
     28 H           3.1215   -2.8577    0.0000 H       1  UNL1        0.0358
     29 H           4.2690   -4.0600    0.0000 H       1  UNL1        0.0575
     30 H           6.8671   -0.9400    0.0000 H       1  UNL1        0.0627
     31 H           6.8671   -2.5600    0.0000 H       1  UNL1        0.0654
     32 H           4.9272    1.9400    0.0000 H       1  UNL1        0.0627
     33 H           2.2460   -5.2500    0.0000 H       1  UNL1        0.0274
     34 H           2.3100   -3.2131    0.0000 H       1  UNL1        0.0274
     35 H           1.4631   -3.4400    0.0000 H       1  UNL1        0.0274
     36 H           1.6900   -4.2869    0.0000 H       1  UNL1        0.0274
     37 H           2.8660   -5.8700    0.0000 H       1  UNL1        0.0274
     38 H           3.4860   -5.2500    0.0000 H       1  UNL1        0.0274
     39 H           3.1951   -1.0600    0.0000 H       1  UNL1        0.2922
     40 H           7.7331    3.5600    0.0000 H       1  UNL1        0.0691
     41 H           4.9272    3.5600    0.0000 H       1  UNL1        0.0654
     42 H           6.0010   -4.0600    0.0000 H       1  UNL1        0.2921
     43 H           8.5991    2.0600    0.0000 H       1  UNL1        0.2922
     44 H           5.7741    5.7869    0.0000 H       1  UNL1        0.0660
     45 H           4.9272    5.5600    0.0000 H       1  UNL1        0.0660
     46 H           5.1541    4.7131    0.0000 H       1  UNL1        0.0660
@<TRIPOS>BOND
     1     1     9    1
     2     1    39    1
     3     2    11    1
     4     2    42    1
     5     3    15    2
     6     4    18    2
     7     5    24    1
     8     5    26    1
     9     6    19    1
    10     6    43    1
    11     7     8    1
    12     7     9   ar
    13     7    11   ar
    14     8    12    1
    15     8    27    1
    16     8    28    1
    17     9    10   ar
    18    10    13   ar
    19    10    15    1
    20    11    14   ar
    21    12    16    2
    22    12    29    1
    23    13    14   ar
    24    13    30    1
    25    14    31    1
    26    15    18    1
    27    16    21    1
    28    16    22    1
    29    17    18    1
    30    17    19   ar
    31    17    20   ar
    32    19    23   ar
    33    20    25   ar
    34    20    32    1
    35    21    33    1
    36    21    37    1
    37    21    38    1
    38    22    34    1
    39    22    35    1
    40    22    36    1
    41    23    24   ar
    42    23    40    1
    43    24    25   ar
    44    25    41    1
    45    26    44    1
    46    26    45    1
    47    26    46    1
