@<TRIPOS>MOLECULE
IMPHY005540
 28 27 0 0 0
SMALL
GASTEIGER

@<TRIPOS>ATOM
      1 O           3.7320    1.1900    0.0000 O.3     1  UNL1       -0.4649
      2 O           4.5981   -0.3100    0.0000 O.2     1  UNL1       -0.2508
      3 C           6.3301    0.6900    0.0000 C.3     1  UNL1       -0.0247
      4 C           5.4641    1.1900    0.0000 C.3     1  UNL1        0.0483
      5 C           7.1962    1.1900    0.0000 C.2     1  UNL1       -0.0871
      6 C           4.5981    0.6900    0.0000 C.2     1  UNL1        0.3074
      7 C           8.0622    0.6900    0.0000 C.2     1  UNL1       -0.0842
      8 C           8.0622   -0.3100    0.0000 C.3     1  UNL1       -0.0168
      9 C           2.8660    0.6900    0.0000 C.3     1  UNL1        0.0896
     10 C           2.0000    1.1900    0.0000 C.3     1  UNL1       -0.0306
     11 C           8.9282   -0.8100    0.0000 C.2     1  UNL1       -0.0874
     12 C           8.9282   -1.8100    0.0000 C.2     1  UNL1       -0.1023
     13 H           5.9316    0.2151    0.0000 H       1  UNL1        0.0312
     14 H           6.7287    0.2151    0.0000 H       1  UNL1        0.0312
     15 H           5.8626    1.6650    0.0000 H       1  UNL1        0.0380
     16 H           5.0656    1.6650    0.0000 H       1  UNL1        0.0380
     17 H           7.1962    1.8100    0.0000 H       1  UNL1        0.0569
     18 H           8.5991    1.0000    0.0000 H       1  UNL1        0.0572
     19 H           7.4516   -0.2023    0.0000 H       1  UNL1        0.0350
     20 H           7.8501   -0.8926    0.0000 H       1  UNL1        0.0350
     21 H           2.4675    0.2151    0.0000 H       1  UNL1        0.0694
     22 H           3.2646    0.2151    0.0000 H       1  UNL1        0.0694
     23 H           2.3100    1.7269    0.0000 H       1  UNL1        0.0262
     24 H           1.4631    1.5000    0.0000 H       1  UNL1        0.0262
     25 H           1.6900    0.6531    0.0000 H       1  UNL1        0.0262
     26 H           9.4651   -0.5000    0.0000 H       1  UNL1        0.0569
     27 H           8.3913   -2.1200    0.0000 H       1  UNL1        0.0532
     28 H           9.4651   -2.1200    0.0000 H       1  UNL1        0.0532
@<TRIPOS>BOND
     1     1     6    1
     2     1     9    1
     3     2     6    2
     4     3     4    1
     5     3     5    1
     6     3    13    1
     7     3    14    1
     8     4     6    1
     9     4    15    1
    10     4    16    1
    11     5     7    2
    12     5    17    1
    13     7     8    1
    14     7    18    1
    15     8    11    1
    16     8    19    1
    17     8    20    1
    18     9    10    1
    19     9    21    1
    20     9    22    1
    21    10    23    1
    22    10    24    1
    23    10    25    1
    24    11    12    2
    25    11    26    1
    26    12    27    1
    27    12    28    1
