@<TRIPOS>MOLECULE
IMPHY013166
 35 36 0 0 0
SMALL
GASTEIGER

@<TRIPOS>ATOM
      1 C           2.8660    1.2500    0.0000 C.3     1  UNL1       -0.0147
      2 C           3.7320    0.7500    0.0000 C.ar    1  UNL1       -0.0368
      3 C           2.0000    0.7500    0.0000 C.3     1  UNL1       -0.0276
      4 C           2.8660   -0.7500    0.0000 C.2     1  UNL1       -0.0413
      5 C           3.7320   -0.2500    0.0000 C.ar    1  UNL1       -0.0182
      6 C           2.8660   -1.7500    0.0000 C.3     1  UNL1       -0.0212
      7 C           2.0000   -0.2500    0.0000 C.2     1  UNL1       -0.0794
      8 C           2.8660    2.2500    0.0000 C.3     1  UNL1       -0.0581
      9 C           4.6260    1.2847    0.0000 C.ar    1  UNL1       -0.0575
     10 C           4.6260   -0.7847    0.0000 C.ar    1  UNL1       -0.0511
     11 C           2.0000   -2.2500    0.0000 C.3     1  UNL1       -0.0586
     12 C           3.7320   -2.2500    0.0000 C.3     1  UNL1       -0.0586
     13 C           5.5321   -0.2708    0.0000 C.ar    1  UNL1       -0.0499
     14 C           5.5321    0.7708    0.0000 C.ar    1  UNL1       -0.0585
     15 C           6.3961   -0.7742    0.0000 C.3     1  UNL1       -0.0397
     16 H           3.4030    1.5600    0.0000 H       1  UNL1        0.0349
     17 H           1.7880    1.3326    0.0000 H       1  UNL1        0.0313
     18 H           1.3894    0.6423    0.0000 H       1  UNL1        0.0313
     19 H           2.8660   -2.3700    0.0000 H       1  UNL1        0.0344
     20 H           1.4631   -0.5600    0.0000 H       1  UNL1        0.0575
     21 H           3.4860    2.2500    0.0000 H       1  UNL1        0.0236
     22 H           2.8660    2.8700    0.0000 H       1  UNL1        0.0236
     23 H           2.2460    2.2500    0.0000 H       1  UNL1        0.0236
     24 H           4.6188    1.9046    0.0000 H       1  UNL1        0.0621
     25 H           4.6188   -1.4046    0.0000 H       1  UNL1        0.0626
     26 H           1.6900   -1.7131    0.0000 H       1  UNL1        0.0235
     27 H           1.4631   -2.5600    0.0000 H       1  UNL1        0.0235
     28 H           2.3100   -2.7869    0.0000 H       1  UNL1        0.0235
     29 H           3.4220   -2.7869    0.0000 H       1  UNL1        0.0235
     30 H           4.2690   -2.5600    0.0000 H       1  UNL1        0.0235
     31 H           4.0420   -1.7131    0.0000 H       1  UNL1        0.0235
     32 H           6.0678    1.0829    0.0000 H       1  UNL1        0.0620
     33 H           6.0841   -1.3099    0.0000 H       1  UNL1        0.0278
     34 H           6.9319   -1.0862    0.0000 H       1  UNL1        0.0278
     35 H           6.7082   -0.2384    0.0000 H       1  UNL1        0.0278
@<TRIPOS>BOND
     1     1     2    1
     2     1     3    1
     3     1     8    1
     4     1    16    1
     5     2     5   ar
     6     2     9   ar
     7     3     7    1
     8     3    17    1
     9     3    18    1
    10     4     5    1
    11     4     6    1
    12     4     7    2
    13     5    10   ar
    14     6    11    1
    15     6    12    1
    16     6    19    1
    17     7    20    1
    18     8    21    1
    19     8    22    1
    20     8    23    1
    21     9    14   ar
    22     9    24    1
    23    10    13   ar
    24    10    25    1
    25    11    26    1
    26    11    27    1
    27    11    28    1
    28    12    29    1
    29    12    30    1
    30    12    31    1
    31    13    14   ar
    32    13    15    1
    33    14    32    1
    34    15    33    1
    35    15    34    1
    36    15    35    1
