@<TRIPOS>MOLECULE
IMPHY017384
 42 41 0 0 0
SMALL
GASTEIGER

@<TRIPOS>ATOM
      1 O           3.7320    0.4400    0.0000 O.3     1  UNL1       -0.4342
      2 O           2.8660   -1.0600    0.0000 O.2     1  UNL1       -0.2508
      3 C           9.7942   -0.0600    0.0000 C.3     1  UNL1       -0.0531
      4 C          10.6603    0.4400    0.0000 C.3     1  UNL1       -0.0531
      5 C           8.9282    0.4400    0.0000 C.3     1  UNL1       -0.0530
      6 C          11.5263   -0.0600    0.0000 C.3     1  UNL1       -0.0531
      7 C           8.0622   -0.0600    0.0000 C.3     1  UNL1       -0.0528
      8 C          12.3923    0.4400    0.0000 C.3     1  UNL1       -0.0533
      9 C           7.1962    0.4400    0.0000 C.3     1  UNL1       -0.0495
     10 C          13.2583   -0.0600    0.0000 C.3     1  UNL1       -0.0559
     11 C           6.3301   -0.0600    0.0000 C.3     1  UNL1       -0.0316
     12 C          14.1244    0.4400    0.0000 C.3     1  UNL1       -0.0653
     13 C           5.4641    0.4400    0.0000 C.2     1  UNL1       -0.0490
     14 C           4.5981   -0.0600    0.0000 C.2     1  UNL1        0.0917
     15 C           2.8660   -0.0600    0.0000 C.2     1  UNL1        0.3086
     16 C           2.0000    0.4400    0.0000 C.3     1  UNL1        0.0336
     17 H           9.3957   -0.5349    0.0000 H       1  UNL1        0.0265
     18 H          10.1928   -0.5349    0.0000 H       1  UNL1        0.0265
     19 H          11.0588    0.9149    0.0000 H       1  UNL1        0.0265
     20 H          10.2617    0.9149    0.0000 H       1  UNL1        0.0265
     21 H           9.3267    0.9149    0.0000 H       1  UNL1        0.0265
     22 H           8.5297    0.9149    0.0000 H       1  UNL1        0.0265
     23 H          11.1278   -0.5349    0.0000 H       1  UNL1        0.0265
     24 H          11.9248   -0.5349    0.0000 H       1  UNL1        0.0265
     25 H           7.6636   -0.5349    0.0000 H       1  UNL1        0.0265
     26 H           8.4607   -0.5349    0.0000 H       1  UNL1        0.0265
     27 H          12.7908    0.9149    0.0000 H       1  UNL1        0.0265
     28 H          11.9938    0.9149    0.0000 H       1  UNL1        0.0265
     29 H           7.5947    0.9149    0.0000 H       1  UNL1        0.0268
     30 H           6.7976    0.9149    0.0000 H       1  UNL1        0.0268
     31 H          12.8598   -0.5349    0.0000 H       1  UNL1        0.0263
     32 H          13.6569   -0.5349    0.0000 H       1  UNL1        0.0263
     33 H           5.9316   -0.5349    0.0000 H       1  UNL1        0.0308
     34 H           6.7287   -0.5349    0.0000 H       1  UNL1        0.0308
     35 H          14.4344   -0.0969    0.0000 H       1  UNL1        0.0230
     36 H          14.6613    0.7500    0.0000 H       1  UNL1        0.0230
     37 H          13.8144    0.9769    0.0000 H       1  UNL1        0.0230
     38 H           5.4641    1.0600    0.0000 H       1  UNL1        0.0602
     39 H           4.5981   -0.6800    0.0000 H       1  UNL1        0.1027
     40 H           2.3100    0.9769    0.0000 H       1  UNL1        0.0342
     41 H           1.4631    0.7500    0.0000 H       1  UNL1        0.0342
     42 H           1.6900   -0.0969    0.0000 H       1  UNL1        0.0342
@<TRIPOS>BOND
     1     1    14    1
     2     1    15    1
     3     2    15    2
     4     3     4    1
     5     3     5    1
     6     3    17    1
     7     3    18    1
     8     4     6    1
     9     4    19    1
    10     4    20    1
    11     5     7    1
    12     5    21    1
    13     5    22    1
    14     6     8    1
    15     6    23    1
    16     6    24    1
    17     7     9    1
    18     7    25    1
    19     7    26    1
    20     8    10    1
    21     8    27    1
    22     8    28    1
    23     9    11    1
    24     9    29    1
    25     9    30    1
    26    10    12    1
    27    10    31    1
    28    10    32    1
    29    11    13    1
    30    11    33    1
    31    11    34    1
    32    12    35    1
    33    12    36    1
    34    12    37    1
    35    13    14    2
    36    13    38    1
    37    14    39    1
    38    15    16    1
    39    16    40    1
    40    16    41    1
    41    16    42    1
