@<TRIPOS>MOLECULE
IMPHY010417
 55 57 0 0 0
SMALL
GASTEIGER

@<TRIPOS>ATOM
      1 O           4.4094   -1.5693    0.0000 O.3     1  UNL1       -0.3598
      2 O           5.6454    0.9051    0.0000 O.3     1  UNL1       -0.3776
      3 O           4.4210    1.5000    0.0000 O.2     1  UNL1       -0.2941
      4 C           6.1694    0.4654    0.0000 C.3     1  UNL1        0.0097
      5 C           7.0354   -0.0346    0.0000 C.3     1  UNL1       -0.0273
      6 C           5.3033   -0.0346    0.0000 C.3     1  UNL1        0.1575
      7 C           7.9454    0.4722    0.0000 C.3     1  UNL1       -0.0315
      8 C           5.3033   -1.0346    0.0000 C.3     1  UNL1        0.1038
      9 C           7.0354   -1.0346    0.0000 C.3     1  UNL1       -0.0464
     10 C           6.1533    1.5069    0.0000 C.3     1  UNL1       -0.0442
     11 C           6.1694   -1.5346    0.0000 C.3     1  UNL1       -0.0205
     12 C           7.9534    1.5138    0.0000 C.3     1  UNL1       -0.0476
     13 C           7.0513    2.0346    0.0000 C.3     1  UNL1       -0.0520
     14 C           4.8694    0.4654    0.0000 C.3     1  UNL1       -0.0562
     15 C           4.4094    0.5000    0.0000 C.2     1  UNL1        0.1710
     16 C           8.9453    0.4607    0.0000 C.3     1  UNL1       -0.0595
     17 C           8.4353   -0.3995    0.0000 C.3     1  UNL1       -0.0595
     18 C           5.3033   -2.0346    0.0000 C.3     1  UNL1       -0.0326
     19 C           3.5033   -1.0554    0.0000 C.3     1  UNL1        0.0921
     20 C           3.5033   -0.0138    0.0000 C.3     1  UNL1        0.0413
     21 C           3.0067   -1.9234    0.0000 C.3     1  UNL1       -0.0318
     22 C           2.5033   -1.0593    0.0000 C.2     1  UNL1       -0.0595
     23 C           2.0000   -0.1952    0.0000 C.2     1  UNL1       -0.0999
     24 H           7.7682   -0.4653    0.0000 H       1  UNL1        0.0312
     25 H           7.2474   -1.6172    0.0000 H       1  UNL1        0.0269
     26 H           7.6460   -0.9270    0.0000 H       1  UNL1        0.0269
     27 H           5.9353    2.0873    0.0000 H       1  UNL1        0.0272
     28 H           5.5442    1.3914    0.0000 H       1  UNL1        0.0272
     29 H           5.7708   -2.0096    0.0000 H       1  UNL1        0.0294
     30 H           6.5679   -2.0096    0.0000 H       1  UNL1        0.0294
     31 H           8.5634    1.4030    0.0000 H       1  UNL1        0.0271
     32 H           8.1670    2.0959    0.0000 H       1  UNL1        0.0271
     33 H           7.4486    2.5106    0.0000 H       1  UNL1        0.0266
     34 H           6.6504    2.5075    0.0000 H       1  UNL1        0.0266
     35 H           4.8694    1.0854    0.0000 H       1  UNL1        0.0236
     36 H           4.2494    0.4654    0.0000 H       1  UNL1        0.0236
     37 H           4.8694   -0.1546    0.0000 H       1  UNL1        0.0236
     38 H           8.9382   -0.1593    0.0000 H       1  UNL1        0.0235
     39 H           9.5653    0.4535    0.0000 H       1  UNL1        0.0235
     40 H           8.9525    1.0806    0.0000 H       1  UNL1        0.0235
     41 H           7.8949   -0.7033    0.0000 H       1  UNL1        0.0235
     42 H           8.7391   -0.9400    0.0000 H       1  UNL1        0.0235
     43 H           8.9758   -0.0958    0.0000 H       1  UNL1        0.0235
     44 H           4.6833   -2.0346    0.0000 H       1  UNL1        0.0258
     45 H           5.3033   -2.6546    0.0000 H       1  UNL1        0.0258
     46 H           5.9233   -2.0346    0.0000 H       1  UNL1        0.0258
     47 H           3.2943    0.5699    0.0000 H       1  UNL1        0.0374
     48 H           2.8925   -0.1199    0.0000 H       1  UNL1        0.0374
     49 H           5.2468    1.3800    0.0000 H       1  UNL1        0.2109
     50 H           2.4685   -1.6155    0.0000 H       1  UNL1        0.0261
     51 H           2.6987   -2.4615    0.0000 H       1  UNL1        0.0261
     52 H           3.5448   -2.2313    0.0000 H       1  UNL1        0.0261
     53 H           2.1954   -1.5974    0.0000 H       1  UNL1        0.0595
     54 H           2.3079    0.3429    0.0000 H       1  UNL1        0.0533
     55 H           1.3800   -0.1976    0.0000 H       1  UNL1        0.0533
@<TRIPOS>BOND
     1     1     8    1
     2     1    19    1
     3     6     2    1
     4     2    49    1
     5     3    15    2
     6     4     5    1
     7     4     6    1
     8     4    10    1
     9     4    14    1
    10     5     7    1
    11     5     9    1
    12     5    24    1
    13     6     8    1
    14     6    15    1
    15     7    12    1
    16     7    16    1
    17     7    17    1
    18     8    11    1
    19     8    18    1
    20     9    11    1
    21     9    25    1
    22     9    26    1
    23    10    13    1
    24    10    27    1
    25    10    28    1
    26    11    29    1
    27    11    30    1
    28    12    13    1
    29    12    31    1
    30    12    32    1
    31    13    33    1
    32    13    34    1
    33    14    35    1
    34    14    36    1
    35    14    37    1
    36    15    20    1
    37    16    38    1
    38    16    39    1
    39    16    40    1
    40    17    41    1
    41    17    42    1
    42    17    43    1
    43    18    44    1
    44    18    45    1
    45    18    46    1
    46    19    20    1
    47    19    21    1
    48    19    22    1
    49    20    47    1
    50    20    48    1
    51    21    50    1
    52    21    51    1
    53    21    52    1
    54    22    23    2
    55    22    53    1
    56    23    54    1
    57    23    55    1
