@<TRIPOS>MOLECULE
IMPHY004307
 58 62 0 0 0
SMALL
GASTEIGER

@<TRIPOS>ATOM
      1 O          11.0065   -1.0546    0.0000 O.2     1  UNL1       -0.4957
      2 O           8.8413   -3.3171    0.0000 O.3     1  UNL1       -0.4646
      3 O           7.5676   -2.1433    0.0000 O.2     1  UNL1       -0.2452
      4 O           2.9339    3.1023    0.0000 O.3     1  UNL1       -0.4914
      5 O           2.3045    1.1596    0.0000 O.3     1  UNL1       -0.4914
      6 N           8.2470    1.3728    0.0000 N.3     1  UNL1       -0.2933
      7 N           5.7940    0.2554    0.0000 N.ar    1  UNL1       -0.3564
      8 C           9.5986    0.1838    0.0000 C.3     1  UNL1        0.0157
      9 C           8.9017   -0.5903    0.0000 C.3     1  UNL1        0.0029
     10 C           7.5779    0.6297    0.0000 C.3     1  UNL1        0.0515
     11 C           7.8845   -0.3658    0.0000 C.3     1  UNL1       -0.0243
     12 C           9.2691    1.1720    0.0000 C.3     1  UNL1        0.0063
     13 C          10.6633   -0.0254    0.0000 C.3     1  UNL1        0.1011
     14 C           6.5998    0.8376    0.0000 C.ar    1  UNL1        0.0376
     15 C           7.9380    2.3239    0.0000 C.3     1  UNL1        0.0036
     16 C           6.2908    1.7886    0.0000 C.ar    1  UNL1       -0.0163
     17 C           6.9599    2.5318    0.0000 C.3     1  UNL1       -0.0125
     18 C           9.2210   -1.6272    0.0000 C.2     1  UNL1        0.0742
     19 C           5.2967    1.7860    0.0000 C.ar    1  UNL1        0.0069
     20 C          11.3238    0.7255    0.0000 C.3     1  UNL1       -0.0275
     21 C          10.2805   -1.8610    0.0000 C.2     1  UNL1        0.0951
     22 C           4.9903    0.8404    0.0000 C.ar    1  UNL1        0.0507
     23 C           8.5433   -2.3626    0.0000 C.2     1  UNL1        0.3381
     24 C           4.6151    2.5656    0.0000 C.ar    1  UNL1       -0.0069
     25 C           3.9811    0.6086    0.0000 C.ar    1  UNL1        0.0076
     26 C           3.6008    2.3572    0.0000 C.ar    1  UNL1        0.1622
     27 C           3.2817    1.3721    0.0000 C.ar    1  UNL1        0.1635
     28 C           8.1636   -4.0525    0.0000 C.3     1  UNL1        0.0820
     29 C           3.2458    4.0525    0.0000 C.3     1  UNL1        0.0790
     30 C           2.0000    0.2071    0.0000 C.3     1  UNL1        0.0790
     31 H          10.1601    0.8220    0.0000 H       1  UNL1        0.0355
     32 H           8.3256   -1.2153    0.0000 H       1  UNL1        0.0357
     33 H           7.0043    0.0024    0.0000 H       1  UNL1        0.0527
     34 H           7.2695   -0.4442    0.0000 H       1  UNL1        0.0290
     35 H           7.8565   -0.9852    0.0000 H       1  UNL1        0.0290
     36 H           9.8822    1.2646    0.0000 H       1  UNL1        0.0431
     37 H           9.2828    1.7918    0.0000 H       1  UNL1        0.0431
     38 H          11.2709   -0.1484    0.0000 H       1  UNL1        0.0733
     39 H           8.5520    2.4101    0.0000 H       1  UNL1        0.0430
     40 H           7.9597    2.9435    0.0000 H       1  UNL1        0.0430
     41 H           7.1921    3.1066    0.0000 H       1  UNL1        0.0326
     42 H           6.4341    2.8603    0.0000 H       1  UNL1        0.0326
     43 H           5.7930   -0.3646    0.0000 H       1  UNL1        0.1656
     44 H          11.7893    0.3160    0.0000 H       1  UNL1        0.0265
     45 H          11.7333    1.1910    0.0000 H       1  UNL1        0.0265
     46 H          10.8583    1.1350    0.0000 H       1  UNL1        0.0265
     47 H          10.4698   -2.4513    0.0000 H       1  UNL1        0.1028
     48 H           4.8130    3.1531    0.0000 H       1  UNL1        0.0662
     49 H           3.7969    0.0166    0.0000 H       1  UNL1        0.0676
     50 H           7.7077   -3.6323    0.0000 H       1  UNL1        0.0661
     51 H           7.7435   -4.5084    0.0000 H       1  UNL1        0.0661
     52 H           8.6196   -4.4726    0.0000 H       1  UNL1        0.0661
     53 H           3.8348    3.8591    0.0000 H       1  UNL1        0.0660
     54 H           3.4391    4.6415    0.0000 H       1  UNL1        0.0660
     55 H           2.6567    4.2458    0.0000 H       1  UNL1        0.0660
     56 H           1.4095    0.3959    0.0000 H       1  UNL1        0.0660
     57 H           1.8112   -0.3834    0.0000 H       1  UNL1        0.0660
     58 H           2.5906    0.0183    0.0000 H       1  UNL1        0.0660
@<TRIPOS>BOND
     1     1    13    1
     2     1    21    1
     3     2    23    1
     4     2    28    1
     5     3    23    2
     6     4    26    1
     7     4    29    1
     8     5    27    1
     9     5    30    1
    10     6    10    1
    11     6    12    1
    12     6    15    1
    13     7    14   ar
    14     7    22   ar
    15     7    43    1
    16     8     9    1
    17     8    12    1
    18     8    13    1
    19     8    31    1
    20     9    11    1
    21     9    18    1
    22     9    32    1
    23    10    11    1
    24    10    14    1
    25    10    33    1
    26    11    34    1
    27    11    35    1
    28    12    36    1
    29    12    37    1
    30    13    20    1
    31    13    38    1
    32    14    16   ar
    33    15    17    1
    34    15    39    1
    35    15    40    1
    36    16    17    1
    37    16    19   ar
    38    17    41    1
    39    17    42    1
    40    18    21    2
    41    18    23    1
    42    19    22   ar
    43    19    24   ar
    44    20    44    1
    45    20    45    1
    46    20    46    1
    47    21    47    1
    48    22    25   ar
    49    24    26   ar
    50    24    48    1
    51    25    27   ar
    52    25    49    1
    53    26    27   ar
    54    28    50    1
    55    28    51    1
    56    28    52    1
    57    29    53    1
    58    29    54    1
    59    29    55    1
    60    30    56    1
    61    30    57    1
    62    30    58    1
