@<TRIPOS>MOLECULE
IMPHY001462
 53 56 0 0 0
SMALL
GASTEIGER

@<TRIPOS>ATOM
      1 O           7.2304    0.0366    0.0000 O.3     1  UNL1       -0.4824
      2 O          10.7664    0.0087    0.0000 O.3     1  UNL1       -0.4778
      3 O          10.7224   -1.9981    0.0000 O.3     1  UNL1       -0.4914
      4 O           7.2419   -3.0327    0.0000 O.2     1  UNL1       -0.2918
      5 O           4.6038    2.5294    0.0000 O.3     1  UNL1       -0.4914
      6 O           2.8680    1.5360    0.0000 O.3     1  UNL1       -0.4915
      7 C           6.3243   -0.4773    0.0000 C.3     1  UNL1        0.1323
      8 C          10.7744    1.0503    0.0000 C.3     1  UNL1        0.1237
      9 C           8.1243   -0.4981    0.0000 C.ar    1  UNL1        0.1427
     10 C           8.9904    0.0019    0.0000 C.ar    1  UNL1        0.0625
     11 C           6.3243   -1.5189    0.0000 C.3     1  UNL1        0.0519
     12 C           8.1243   -1.4981    0.0000 C.ar    1  UNL1        0.0634
     13 C           9.8564   -0.4981    0.0000 C.ar    1  UNL1        0.1738
     14 C           7.2304   -2.0328    0.0000 C.2     1  UNL1        0.1706
     15 C           9.8723    1.5712    0.0000 C.2     1  UNL1       -0.0408
     16 C           5.4602    0.0260    0.0000 C.ar    1  UNL1       -0.0033
     17 C           8.9743    1.0434    0.0000 C.2     1  UNL1       -0.0477
     18 C           9.8564   -1.4981    0.0000 C.ar    1  UNL1        0.1630
     19 C           8.9904   -1.9981    0.0000 C.ar    1  UNL1       -0.0023
     20 C          11.2777    1.9144    0.0000 C.3     1  UNL1       -0.0215
     21 C          11.7744    1.0465    0.0000 C.3     1  UNL1       -0.0215
     22 C           5.4641    1.0260    0.0000 C.ar    1  UNL1       -0.0096
     23 C           4.5923   -0.4706    0.0000 C.ar    1  UNL1       -0.0514
     24 C           4.6000    1.5294    0.0000 C.ar    1  UNL1        0.1619
     25 C           3.7282    0.0327    0.0000 C.ar    1  UNL1       -0.0159
     26 C           3.7320    1.0327    0.0000 C.ar    1  UNL1        0.1615
     27 C          10.7224   -2.9981    0.0000 C.3     1  UNL1        0.0790
     28 C           3.7398    3.0327    0.0000 C.3     1  UNL1        0.0790
     29 C           2.0000    1.0394    0.0000 C.3     1  UNL1        0.0790
     30 H           6.3279    0.1427    0.0000 H       1  UNL1        0.0789
     31 H           5.7135   -1.4128    0.0000 H       1  UNL1        0.0385
     32 H           6.1153   -2.1026    0.0000 H       1  UNL1        0.0385
     33 H           9.8699    2.1912    0.0000 H       1  UNL1        0.0611
     34 H           8.4338    1.3472    0.0000 H       1  UNL1        0.0624
     35 H           8.9904   -2.6181    0.0000 H       1  UNL1        0.0663
     36 H          11.8135    1.6024    0.0000 H       1  UNL1        0.0271
     37 H          11.5898    2.4502    0.0000 H       1  UNL1        0.0271
     38 H          10.7420    2.2265    0.0000 H       1  UNL1        0.0271
     39 H          11.7720    0.4265    0.0000 H       1  UNL1        0.0271
     40 H          12.3944    1.0441    0.0000 H       1  UNL1        0.0271
     41 H          11.7768    1.6665    0.0000 H       1  UNL1        0.0271
     42 H           6.0022    1.3340    0.0000 H       1  UNL1        0.0659
     43 H           4.5899   -1.0906    0.0000 H       1  UNL1        0.0623
     44 H           3.1901   -0.2752    0.0000 H       1  UNL1        0.0655
     45 H          10.1024   -2.9981    0.0000 H       1  UNL1        0.0660
     46 H          10.7224   -3.6181    0.0000 H       1  UNL1        0.0660
     47 H          11.3424   -2.9981    0.0000 H       1  UNL1        0.0660
     48 H           4.0518    3.5684    0.0000 H       1  UNL1        0.0660
     49 H           3.2040    3.3448    0.0000 H       1  UNL1        0.0660
     50 H           3.4277    2.4970    0.0000 H       1  UNL1        0.0660
     51 H           1.6921    1.5775    0.0000 H       1  UNL1        0.0660
     52 H           1.4619    0.7315    0.0000 H       1  UNL1        0.0660
     53 H           2.3079    0.5013    0.0000 H       1  UNL1        0.0660
@<TRIPOS>BOND
     1     1     7    1
     2     1     9    1
     3     2     8    1
     4     2    13    1
     5     3    18    1
     6     3    27    1
     7     4    14    2
     8     5    24    1
     9     5    28    1
    10     6    26    1
    11     6    29    1
    12     7    11    1
    13     7    16    1
    14     7    30    1
    15     8    15    1
    16     8    20    1
    17     8    21    1
    18     9    10   ar
    19     9    12   ar
    20    10    13   ar
    21    10    17    1
    22    11    14    1
    23    11    31    1
    24    11    32    1
    25    12    14    1
    26    12    19   ar
    27    13    18   ar
    28    15    17    2
    29    15    33    1
    30    16    22   ar
    31    16    23   ar
    32    17    34    1
    33    18    19   ar
    34    19    35    1
    35    20    36    1
    36    20    37    1
    37    20    38    1
    38    21    39    1
    39    21    40    1
    40    21    41    1
    41    22    24   ar
    42    22    42    1
    43    23    25   ar
    44    23    43    1
    45    24    26   ar
    46    25    26   ar
    47    25    44    1
    48    27    45    1
    49    27    46    1
    50    27    47    1
    51    28    48    1
    52    28    49    1
    53    28    50    1
    54    29    51    1
    55    29    52    1
    56    29    53    1
