@<TRIPOS>MOLECULE
IMPHY014544
 54 57 0 0 0
SMALL
GASTEIGER

@<TRIPOS>ATOM
      1 O           7.9288   -1.4507    0.0000 O.3     1  UNL1       -0.3802
      2 O           5.3307    1.0493    0.0000 O.2     1  UNL1       -0.2971
      3 O           9.1857   -1.7059    0.0000 O.2     1  UNL1       -0.2943
      4 O           2.5357   -2.5030    0.0000 O.3     1  UNL1       -0.3915
      5 O           8.5179    2.5489    0.0000 O.2     1  UNL1       -0.2974
      6 C           7.9288    0.5493    0.0000 C.3     1  UNL1        0.0204
      7 C           7.9288   -0.4507    0.0000 C.3     1  UNL1        0.1336
      8 C           7.0628   -0.9507    0.0000 C.3     1  UNL1        0.0091
      9 C           6.1968   -0.4507    0.0000 C.3     1  UNL1        0.0327
     10 C           5.2868   -0.9575    0.0000 C.3     1  UNL1       -0.0011
     11 C           8.8750    0.8540    0.0000 C.3     1  UNL1        0.0328
     12 C           7.0628    1.0493    0.0000 C.3     1  UNL1        0.0152
     13 C           7.0789   -1.9922    0.0000 C.3     1  UNL1       -0.0279
     14 C           6.1968    0.5493    0.0000 C.2     1  UNL1        0.1383
     15 C           8.8750   -0.7554    0.0000 C.2     1  UNL1        0.1661
     16 C           9.4586    0.0493    0.0000 C.3     1  UNL1        0.0189
     17 C           5.2787   -1.9991    0.0000 C.2     1  UNL1       -0.0644
     18 C           4.3599   -0.3935    0.0000 C.3     1  UNL1       -0.0409
     19 C           7.9288    1.5493    0.0000 C.3     1  UNL1       -0.0555
     20 C           6.1808   -2.5200    0.0000 C.2     1  UNL1       -0.0838
     21 C           5.2945    0.0424    0.0000 C.3     1  UNL1       -0.0552
     22 C           4.3433   -2.5489    0.0000 C.3     1  UNL1       -0.0051
     23 C           3.4120   -0.9214    0.0000 C.3     1  UNL1       -0.0258
     24 C           3.4037   -2.0064    0.0000 C.3     1  UNL1        0.0590
     25 C           9.1857    1.8046    0.0000 C.2     1  UNL1        0.1344
     26 C          10.1642    2.0108    0.0000 C.3     1  UNL1       -0.0058
     27 H           7.8022   -1.3700    0.0000 H       1  UNL1        0.0343
     28 H           6.9329   -0.0257    0.0000 H       1  UNL1        0.0390
     29 H           9.4875    0.9502    0.0000 H       1  UNL1        0.0388
     30 H           7.4613    1.5243    0.0000 H       1  UNL1        0.0348
     31 H           6.6643    1.5243    0.0000 H       1  UNL1        0.0348
     32 H           7.2969   -2.5726    0.0000 H       1  UNL1        0.0311
     33 H           7.6880   -1.8767    0.0000 H       1  UNL1        0.0311
     34 H           9.9195   -0.3654    0.0000 H       1  UNL1        0.0350
     35 H           9.9195    0.4640    0.0000 H       1  UNL1        0.0350
     36 H           4.7681    0.0732    0.0000 H       1  UNL1        0.0275
     37 H           3.9700    0.0886    0.0000 H       1  UNL1        0.0275
     38 H           8.5488    1.5493    0.0000 H       1  UNL1        0.0236
     39 H           7.9288    2.1693    0.0000 H       1  UNL1        0.0236
     40 H           7.3088    1.5493    0.0000 H       1  UNL1        0.0236
     41 H           6.1832   -3.1399    0.0000 H       1  UNL1        0.0572
     42 H           5.9145    0.0377    0.0000 H       1  UNL1        0.0238
     43 H           5.2993    0.6624    0.0000 H       1  UNL1        0.0238
     44 H           4.6745    0.0472    0.0000 H       1  UNL1        0.0238
     45 H           3.9460   -3.0248    0.0000 H       1  UNL1        0.0335
     46 H           4.7443   -3.0218    0.0000 H       1  UNL1        0.0335
     47 H           3.2075   -0.3361    0.0000 H       1  UNL1        0.0290
     48 H           2.8004   -1.0228    0.0000 H       1  UNL1        0.0290
     49 H           8.4658   -1.7607    0.0000 H       1  UNL1        0.2108
     50 H           3.4025   -2.6264    0.0000 H       1  UNL1        0.0596
     51 H          10.2921    1.4041    0.0000 H       1  UNL1        0.0306
     52 H          10.7709    2.1386    0.0000 H       1  UNL1        0.0306
     53 H          10.0364    2.6174    0.0000 H       1  UNL1        0.0306
     54 H           2.0000   -2.1910    0.0000 H       1  UNL1        0.2098
@<TRIPOS>BOND
     1     7     1    1
     2     1    49    1
     3     2    14    2
     4     3    15    2
     5    24     4    1
     6     4    54    1
     7     5    25    2
     8     6     7    1
     9     6    11    1
    10     6    12    1
    11     6    19    1
    12     7     8    1
    13     7    15    1
    14     8     9    1
    15     8    13    1
    16     8    27    1
    17     9    10    1
    18     9    14    1
    19     9    28    1
    20    10    17    1
    21    10    18    1
    22    10    21    1
    23    11    16    1
    24    11    25    1
    25    11    29    1
    26    12    14    1
    27    12    30    1
    28    12    31    1
    29    13    20    1
    30    13    32    1
    31    13    33    1
    32    15    16    1
    33    16    34    1
    34    16    35    1
    35    17    20    2
    36    17    22    1
    37    18    23    1
    38    18    36    1
    39    18    37    1
    40    19    38    1
    41    19    39    1
    42    19    40    1
    43    20    41    1
    44    21    42    1
    45    21    43    1
    46    21    44    1
    47    22    24    1
    48    22    45    1
    49    22    46    1
    50    23    24    1
    51    23    47    1
    52    23    48    1
    53    24    50    1
    54    25    26    1
    55    26    51    1
    56    26    52    1
    57    26    53    1
