@<TRIPOS>MOLECULE
IMPHY002246
 56 60 0 0 0
SMALL
GASTEIGER

@<TRIPOS>ATOM
      1 O           5.1350   -2.6999    0.0000 O.3     1  UNL1       -0.3313
      2 O           6.8671   -2.6999    0.0000 O.3     1  UNL1       -0.4606
      3 O           5.1350   -5.6999    0.0000 O.3     1  UNL1       -0.3864
      4 O           3.4030   -4.6999    0.0000 O.3     1  UNL1       -0.3865
      5 O           6.8671   -4.6999    0.0000 O.3     1  UNL1       -0.3829
      6 O           2.5369   -3.1999    0.0000 O.3     1  UNL1       -0.3924
      7 O           8.6230    0.3626    0.0000 O.2     1  UNL1       -0.4543
      8 O           5.1208    0.3792    0.0000 O.3     1  UNL1       -0.5058
      9 O           6.0308    1.8726    0.0000 O.2     1  UNL1       -0.2863
     10 O           5.9184    5.0100    0.0000 O.3     1  UNL1       -0.4951
     11 C           5.1350   -4.6999    0.0000 C.3     1  UNL1        0.1152
     12 C           4.2690   -4.1999    0.0000 C.3     1  UNL1        0.1120
     13 C           6.0010   -4.1999    0.0000 C.3     1  UNL1        0.1454
     14 C           4.2690   -3.1999    0.0000 C.3     1  UNL1        0.1140
     15 C           6.0010   -3.1999    0.0000 C.3     1  UNL1        0.2308
     16 C           3.4030   -2.6999    0.0000 C.3     1  UNL1        0.0731
     17 C           6.8671   -1.6999    0.0000 C.ar    1  UNL1        0.1310
     18 C           7.7671   -1.1756    0.0000 C.ar    1  UNL1        0.0235
     19 C           7.7551   -0.1341    0.0000 C.ar    1  UNL1        0.1463
     20 C           6.8910    0.3692    0.0000 C.ar    1  UNL1        0.1061
     21 C           5.9670   -1.1756    0.0000 C.ar    1  UNL1        0.0226
     22 C           7.7628    1.8659    0.0000 C.ar    1  UNL1        0.0725
     23 C           5.9790   -0.1341    0.0000 C.ar    1  UNL1        0.1347
     24 C           6.8948    1.3692    0.0000 C.ar    1  UNL1        0.2043
     25 C           8.6269    1.3626    0.0000 C.ar    1  UNL1        0.1399
     26 C           7.7508    2.9074    0.0000 C.ar    1  UNL1       -0.0001
     27 C           8.6508    3.4317    0.0000 C.ar    1  UNL1       -0.0167
     28 C           9.5388    1.8659    0.0000 C.ar    1  UNL1       -0.0180
     29 C           9.5509    2.9074    0.0000 C.ar    1  UNL1       -0.0505
     30 C           6.8008    3.4317    0.0000 C.ar    1  UNL1       -0.0114
     31 C           8.6634    4.5167    0.0000 C.ar    1  UNL1       -0.0506
     32 C           6.7883    4.5167    0.0000 C.ar    1  UNL1        0.1207
     33 C           7.7258    5.0628    0.0000 C.ar    1  UNL1       -0.0194
     34 C           5.9107    6.0099    0.0000 C.3     1  UNL1        0.0788
     35 H           5.6720   -5.0099    0.0000 H       1  UNL1        0.0648
     36 H           4.2690   -4.8199    0.0000 H       1  UNL1        0.0647
     37 H           6.5380   -3.8899    0.0000 H       1  UNL1        0.0683
     38 H           4.2690   -2.5799    0.0000 H       1  UNL1        0.0647
     39 H           6.0010   -2.5799    0.0000 H       1  UNL1        0.1084
     40 H           3.8015   -2.2250    0.0000 H       1  UNL1        0.0584
     41 H           3.0044   -2.2250    0.0000 H       1  UNL1        0.0584
     42 H           4.5981   -6.0099    0.0000 H       1  UNL1        0.2100
     43 H           3.4030   -5.3199    0.0000 H       1  UNL1        0.2100
     44 H           6.8671   -5.3199    0.0000 H       1  UNL1        0.2102
     45 H           8.3064   -1.4815    0.0000 H       1  UNL1        0.0691
     46 H           2.0000   -2.8899    0.0000 H       1  UNL1        0.2095
     47 H           5.4277   -1.4815    0.0000 H       1  UNL1        0.0691
     48 H          10.0709    1.5476    0.0000 H       1  UNL1        0.0655
     49 H          10.0902    3.2133    0.0000 H       1  UNL1        0.0625
     50 H           6.2687    3.1135    0.0000 H       1  UNL1        0.0660
     51 H           9.2027    4.8225    0.0000 H       1  UNL1        0.0625
     52 H           7.7258    5.6828    0.0000 H       1  UNL1        0.0654
     53 H           4.5792    0.0775    0.0000 H       1  UNL1        0.2922
     54 H           6.5307    6.0147    0.0000 H       1  UNL1        0.0660
     55 H           5.9059    6.6299    0.0000 H       1  UNL1        0.0660
     56 H           5.2907    6.0052    0.0000 H       1  UNL1        0.0660
@<TRIPOS>BOND
     1     1    14    1
     2     1    15    1
     3    15     2    1
     4     2    17    1
     5    11     3    1
     6     3    42    1
     7    12     4    1
     8     4    43    1
     9    13     5    1
    10     5    44    1
    11     6    16    1
    12     6    46    1
    13     7    19   ar
    14     7    25   ar
    15     8    23    1
    16     8    53    1
    17     9    24    2
    18    10    32    1
    19    10    34    1
    20    11    12    1
    21    11    13    1
    22    11    35    1
    23    12    14    1
    24    12    36    1
    25    13    15    1
    26    13    37    1
    27    14    16    1
    28    14    38    1
    29    15    39    1
    30    16    40    1
    31    16    41    1
    32    17    18   ar
    33    17    21   ar
    34    18    19   ar
    35    18    45    1
    36    19    20   ar
    37    20    23   ar
    38    20    24   ar
    39    21    23   ar
    40    21    47    1
    41    22    24   ar
    42    22    25   ar
    43    22    26   ar
    44    25    28   ar
    45    26    27   ar
    46    26    30   ar
    47    27    29   ar
    48    27    31   ar
    49    28    29   ar
    50    28    48    1
    51    29    49    1
    52    30    32   ar
    53    30    50    1
    54    31    33   ar
    55    31    51    1
    56    32    33   ar
    57    33    52    1
    58    34    54    1
    59    34    55    1
    60    34    56    1
