@<TRIPOS>MOLECULE
IMPHY016548
 46 47 0 0 0
SMALL
GASTEIGER

@<TRIPOS>ATOM
      1 O           8.9282    0.2500    0.0000 O.3     1  UNL1       -0.4579
      2 O           7.1962    0.2500    0.0000 O.2     1  UNL1       -0.2449
      3 O           5.4641   -1.7500    0.0000 O.3     1  UNL1       -0.4611
      4 O           6.3301   -0.2500    0.0000 O.2     1  UNL1       -0.2449
      5 C           8.9282    1.2500    0.0000 C.3     1  UNL1        0.1034
      6 C           9.7942    1.7500    0.0000 C.3     1  UNL1       -0.0157
      7 C           8.0622    1.7500    0.0000 C.3     1  UNL1       -0.0157
      8 C           9.7942    2.7500    0.0000 C.3     1  UNL1       -0.0497
      9 C           8.0622    2.7500    0.0000 C.3     1  UNL1       -0.0497
     10 C           8.9282    3.2500    0.0000 C.3     1  UNL1       -0.0528
     11 C           8.0622   -0.2500    0.0000 C.2     1  UNL1        0.3402
     12 C           8.0622   -1.2500    0.0000 C.ar    1  UNL1        0.0729
     13 C           7.1962   -1.7500    0.0000 C.ar    1  UNL1        0.0729
     14 C           8.9282   -1.7500    0.0000 C.ar    1  UNL1       -0.0470
     15 C           3.7320   -1.7500    0.0000 C.3     1  UNL1       -0.0188
     16 C           4.5981   -1.2500    0.0000 C.3     1  UNL1        0.0928
     17 C           2.8660   -1.2500    0.0000 C.3     1  UNL1       -0.0528
     18 C           7.1962   -2.7500    0.0000 C.ar    1  UNL1       -0.0470
     19 C           6.3301   -1.2500    0.0000 C.2     1  UNL1        0.3400
     20 C           8.9282   -2.7500    0.0000 C.ar    1  UNL1       -0.0609
     21 C           8.0622   -3.2500    0.0000 C.ar    1  UNL1       -0.0609
     22 C           2.0000   -1.7500    0.0000 C.3     1  UNL1       -0.0652
     23 H           9.4651    0.9400    0.0000 H       1  UNL1        0.0734
     24 H          10.0063    1.1674    0.0000 H       1  UNL1        0.0301
     25 H          10.4048    1.8577    0.0000 H       1  UNL1        0.0301
     26 H           7.4516    1.8577    0.0000 H       1  UNL1        0.0301
     27 H           7.8501    1.1674    0.0000 H       1  UNL1        0.0301
     28 H          10.4048    2.6423    0.0000 H       1  UNL1        0.0266
     29 H          10.0063    3.3326    0.0000 H       1  UNL1        0.0266
     30 H           7.8501    3.3326    0.0000 H       1  UNL1        0.0266
     31 H           7.4516    2.6423    0.0000 H       1  UNL1        0.0266
     32 H           9.3267    3.7250    0.0000 H       1  UNL1        0.0265
     33 H           8.5297    3.7250    0.0000 H       1  UNL1        0.0265
     34 H           9.4651   -1.4400    0.0000 H       1  UNL1        0.0626
     35 H           3.3335   -2.2250    0.0000 H       1  UNL1        0.0298
     36 H           4.1306   -2.2250    0.0000 H       1  UNL1        0.0298
     37 H           4.9966   -0.7751    0.0000 H       1  UNL1        0.0697
     38 H           4.1996   -0.7751    0.0000 H       1  UNL1        0.0697
     39 H           3.2646   -0.7751    0.0000 H       1  UNL1        0.0264
     40 H           2.4675   -0.7751    0.0000 H       1  UNL1        0.0264
     41 H           6.6592   -3.0600    0.0000 H       1  UNL1        0.0626
     42 H           9.4651   -3.0600    0.0000 H       1  UNL1        0.0618
     43 H           8.0622   -3.8700    0.0000 H       1  UNL1        0.0618
     44 H           1.6900   -1.2131    0.0000 H       1  UNL1        0.0230
     45 H           1.4631   -2.0600    0.0000 H       1  UNL1        0.0230
     46 H           2.3100   -2.2869    0.0000 H       1  UNL1        0.0230
@<TRIPOS>BOND
     1     1     5    1
     2     1    11    1
     3     2    11    2
     4     3    16    1
     5     3    19    1
     6     4    19    2
     7     5     6    1
     8     5     7    1
     9     5    23    1
    10     6     8    1
    11     6    24    1
    12     6    25    1
    13     7     9    1
    14     7    26    1
    15     7    27    1
    16     8    10    1
    17     8    28    1
    18     8    29    1
    19     9    10    1
    20     9    30    1
    21     9    31    1
    22    10    32    1
    23    10    33    1
    24    11    12    1
    25    12    13   ar
    26    12    14   ar
    27    13    18   ar
    28    13    19    1
    29    14    20   ar
    30    14    34    1
    31    15    16    1
    32    15    17    1
    33    15    35    1
    34    15    36    1
    35    16    37    1
    36    16    38    1
    37    17    22    1
    38    17    39    1
    39    17    40    1
    40    18    21   ar
    41    18    41    1
    42    20    21   ar
    43    20    42    1
    44    21    43    1
    45    22    44    1
    46    22    45    1
    47    22    46    1
