@<TRIPOS>MOLECULE
IMPHY013891
 19 18 0 0 0
SMALL
GASTEIGER

@<TRIPOS>ATOM
      1 O           4.2690   -0.9050    0.0000 O.3     1  UNL1       -0.3905
      2 N           2.5369    0.0950    0.0000 N.3     1  UNL1       -0.3277
      3 N           6.8671    0.5950    0.0000 N.3     1  UNL1       -0.3299
      4 C           4.2690    0.0950    0.0000 C.3     1  UNL1        0.0686
      5 C           5.1350    0.5950    0.0000 C.3     1  UNL1       -0.0133
      6 C           3.4030    0.5950    0.0000 C.3     1  UNL1        0.0193
      7 C           6.0010    0.0950    0.0000 C.3     1  UNL1       -0.0045
      8 H           4.8059   -0.2150    0.0000 H       1  UNL1        0.0606
      9 H           5.5335    1.0700    0.0000 H       1  UNL1        0.0303
     10 H           4.7365    1.0700    0.0000 H       1  UNL1        0.0303
     11 H           3.8015    1.0700    0.0000 H       1  UNL1        0.0447
     12 H           3.0044    1.0700    0.0000 H       1  UNL1        0.0447
     13 H           5.6025   -0.3799    0.0000 H       1  UNL1        0.0423
     14 H           6.3996   -0.3799    0.0000 H       1  UNL1        0.0423
     15 H           3.7320   -1.2150    0.0000 H       1  UNL1        0.2098
     16 H           2.0000    0.4050    0.0000 H       1  UNL1        0.1183
     17 H           2.5369   -0.5250    0.0000 H       1  UNL1        0.1183
     18 H           7.4040    0.2850    0.0000 H       1  UNL1        0.1182
     19 H           6.8671    1.2150    0.0000 H       1  UNL1        0.1182
@<TRIPOS>BOND
     1     1     4    1
     2     1    15    1
     3     2     6    1
     4     2    16    1
     5     2    17    1
     6     3     7    1
     7     3    18    1
     8     3    19    1
     9     4     5    1
    10     4     6    1
    11     4     8    1
    12     5     7    1
    13     5     9    1
    14     5    10    1
    15     6    11    1
    16     6    12    1
    17     7    13    1
    18     7    14    1
