@<TRIPOS>MOLECULE
IMPHY017742
 26 26 0 0 0
SMALL
GASTEIGER

@<TRIPOS>ATOM
      1 C           3.7320    0.5670    0.0000 C.3     1  UNL1       -0.0127
      2 C           2.8660    0.0670    0.0000 C.3     1  UNL1       -0.0231
      3 C           4.5981    0.0670    0.0000 C.2     1  UNL1       -0.0751
      4 C           2.8660   -0.9330    0.0000 C.2     1  UNL1       -0.0716
      5 C           4.2320    1.4330    0.0000 C.3     1  UNL1       -0.0560
      6 C           3.2320    1.4330    0.0000 C.3     1  UNL1       -0.0560
      7 C           4.5981   -0.9330    0.0000 C.2     1  UNL1       -0.0539
      8 C           3.7320   -1.4330    0.0000 C.2     1  UNL1       -0.0601
      9 C           2.0000   -1.4330    0.0000 C.3     1  UNL1       -0.0435
     10 C           5.4641   -1.4330    0.0000 C.3     1  UNL1       -0.0400
     11 H           2.6540    0.6496    0.0000 H       1  UNL1        0.0318
     12 H           2.2554   -0.0407    0.0000 H       1  UNL1        0.0318
     13 H           5.1350    0.3770    0.0000 H       1  UNL1        0.0580
     14 H           4.7690    1.1230    0.0000 H       1  UNL1        0.0238
     15 H           4.5420    1.9700    0.0000 H       1  UNL1        0.0238
     16 H           3.6951    1.7430    0.0000 H       1  UNL1        0.0238
     17 H           3.7690    1.7430    0.0000 H       1  UNL1        0.0238
     18 H           2.9220    1.9700    0.0000 H       1  UNL1        0.0238
     19 H           2.6951    1.1230    0.0000 H       1  UNL1        0.0238
     20 H           3.7320   -2.0530    0.0000 H       1  UNL1        0.0620
     21 H           1.6900   -0.8961    0.0000 H       1  UNL1        0.0274
     22 H           1.4631   -1.7430    0.0000 H       1  UNL1        0.0274
     23 H           2.3100   -1.9700    0.0000 H       1  UNL1        0.0274
     24 H           5.1541   -1.9700    0.0000 H       1  UNL1        0.0277
     25 H           6.0010   -1.7430    0.0000 H       1  UNL1        0.0277
     26 H           5.7741   -0.8961    0.0000 H       1  UNL1        0.0277
@<TRIPOS>BOND
     1     1     2    1
     2     1     3    1
     3     1     5    1
     4     1     6    1
     5     2     4    1
     6     2    11    1
     7     2    12    1
     8     3     7    2
     9     3    13    1
    10     4     8    2
    11     4     9    1
    12     5    14    1
    13     5    15    1
    14     5    16    1
    15     6    17    1
    16     6    18    1
    17     6    19    1
    18     7     8    1
    19     7    10    1
    20     8    20    1
    21     9    21    1
    22     9    22    1
    23     9    23    1
    24    10    24    1
    25    10    25    1
    26    10    26    1
