@<TRIPOS>MOLECULE
IMPHY008271
 21 20 0 0 0
SMALL
GASTEIGER

@<TRIPOS>ATOM
      1 O           3.7320   -0.5600    0.0000 O.3     1  UNL1       -0.4665
      2 O           2.0000   -0.5600    0.0000 O.2     1  UNL1       -0.2546
      3 C           5.4641   -0.5600    0.0000 C.3     1  UNL1       -0.0003
      4 C           6.3301   -0.0600    0.0000 C.2     1  UNL1       -0.0847
      5 C           8.0622   -0.0600    0.0000 C.3     1  UNL1       -0.0376
      6 C           4.5981   -0.0600    0.0000 C.3     1  UNL1        0.0956
      7 C           7.1962   -0.5600    0.0000 C.2     1  UNL1       -0.0881
      8 C           8.9282   -0.5600    0.0000 C.3     1  UNL1       -0.0618
      9 C           2.8660   -0.0600    0.0000 C.2     1  UNL1        0.2943
     10 H           5.0656   -1.0350    0.0000 H       1  UNL1        0.0340
     11 H           5.8626   -1.0350    0.0000 H       1  UNL1        0.0340
     12 H           6.3301    0.5600    0.0000 H       1  UNL1        0.0570
     13 H           4.9966    0.4149    0.0000 H       1  UNL1        0.0700
     14 H           4.1996    0.4149    0.0000 H       1  UNL1        0.0700
     15 H           8.4607    0.4149    0.0000 H       1  UNL1        0.0305
     16 H           7.6636    0.4149    0.0000 H       1  UNL1        0.0305
     17 H           7.1962   -1.1800    0.0000 H       1  UNL1        0.0569
     18 H           8.6182   -1.0969    0.0000 H       1  UNL1        0.0233
     19 H           9.4651   -0.8700    0.0000 H       1  UNL1        0.0233
     20 H           9.2382   -0.0231    0.0000 H       1  UNL1        0.0233
     21 H           2.8660    0.5600    0.0000 H       1  UNL1        0.1512
@<TRIPOS>BOND
     1     1     6    1
     2     1     9    1
     3     2     9    2
     4     3     4    1
     5     3     6    1
     6     3    10    1
     7     3    11    1
     8     4     7    2
     9     4    12    1
    10     5     7    1
    11     5     8    1
    12     5    15    1
    13     5    16    1
    14     6    13    1
    15     6    14    1
    16     7    17    1
    17     8    18    1
    18     8    19    1
    19     8    20    1
    20     9    21    1
