@<TRIPOS>MOLECULE
IMPHY017143
 19 19 0 0 0
SMALL
GASTEIGER

@<TRIPOS>ATOM
      1 O           3.7601   -0.8242    0.0000 O.2     1  UNL1       -0.4603
      2 C           3.2601    0.7146    0.0000 C.ar    1  UNL1       -0.0092
      3 C           2.9511   -0.2365    0.0000 C.ar    1  UNL1        0.1056
      4 C           4.2601    0.7146    0.0000 C.ar    1  UNL1       -0.0133
      5 C           4.5691   -0.2365    0.0000 C.ar    1  UNL1        0.1278
      6 C           2.6723    1.5236    0.0000 C.3     1  UNL1       -0.0364
      7 C           2.0000   -0.5455    0.0000 C.3     1  UNL1       -0.0061
      8 C           5.5202   -0.5455    0.0000 C.2     1  UNL1       -0.0264
      9 C           5.7281   -1.5236    0.0000 C.2     1  UNL1       -0.0952
     10 H           4.6245    1.2162    0.0000 H       1  UNL1        0.0658
     11 H           3.1739    1.8880    0.0000 H       1  UNL1        0.0279
     12 H           2.3079    2.0252    0.0000 H       1  UNL1        0.0279
     13 H           2.1707    1.1592    0.0000 H       1  UNL1        0.0279
     14 H           1.8084    0.0442    0.0000 H       1  UNL1        0.0308
     15 H           1.4103   -0.7371    0.0000 H       1  UNL1        0.0308
     16 H           2.1916   -1.1351    0.0000 H       1  UNL1        0.0308
     17 H           5.9809   -0.1306    0.0000 H       1  UNL1        0.0648
     18 H           5.2673   -1.9385    0.0000 H       1  UNL1        0.0536
     19 H           6.3177   -1.7152    0.0000 H       1  UNL1        0.0536
@<TRIPOS>BOND
     1     1     3   ar
     2     1     5   ar
     3     2     3   ar
     4     2     4   ar
     5     2     6    1
     6     3     7    1
     7     4     5   ar
     8     4    10    1
     9     5     8    1
    10     6    11    1
    11     6    12    1
    12     6    13    1
    13     7    14    1
    14     7    15    1
    15     7    16    1
    16     8     9    2
    17     8    17    1
    18     9    18    1
    19     9    19    1
