@<TRIPOS>MOLECULE
IMPHY008901
 41 44 0 0 0
SMALL
GASTEIGER

@<TRIPOS>ATOM
      1 O           6.1719    1.3432    0.0000 O.3     1  UNL1       -0.4569
      2 O           7.0479   -0.1951    0.0000 O.2     1  UNL1       -0.2449
      3 O           2.5394   -1.7869    0.0000 O.3     1  UNL1       -0.4914
      4 O           4.3427   -2.8467    0.0000 O.3     1  UNL1       -0.4914
      5 N           2.5836    1.5453    0.0000 N.3     1  UNL1       -0.3087
      6 C           4.3958    1.3500    0.0000 C.3     1  UNL1        0.0416
      7 C           3.5298    1.8500    0.0000 C.3     1  UNL1        0.0392
      8 C           5.2619    1.8500    0.0000 C.3     1  UNL1        0.1153
      9 C           3.5298    2.8500    0.0000 C.2     1  UNL1       -0.0546
     10 C           5.2619    2.8500    0.0000 C.3     1  UNL1        0.0035
     11 C           2.5836    3.1548    0.0000 C.3     1  UNL1       -0.0177
     12 C           4.3798    0.3085    0.0000 C.ar    1  UNL1       -0.0213
     13 C           2.0000    2.3500    0.0000 C.3     1  UNL1        0.0002
     14 C           4.3958    3.3500    0.0000 C.2     1  UNL1       -0.0797
     15 C           5.2778   -0.2192    0.0000 C.ar    1  UNL1        0.0663
     16 C           3.4279   -0.2121    0.0000 C.ar    1  UNL1       -0.0119
     17 C           6.1799    0.3016    0.0000 C.2     1  UNL1        0.3399
     18 C           5.2862   -1.3042    0.0000 C.ar    1  UNL1       -0.0021
     19 C           3.4111   -1.2970    0.0000 C.ar    1  UNL1        0.1618
     20 C           4.3466   -1.8467    0.0000 C.ar    1  UNL1        0.1623
     21 C           2.5278   -2.7869    0.0000 C.3     1  UNL1        0.0790
     22 C           5.2068   -3.3500    0.0000 C.3     1  UNL1        0.0790
     23 H           3.6565    0.9307    0.0000 H       1  UNL1        0.0404
     24 H           3.4399    1.0048    0.0000 H       1  UNL1        0.0514
     25 H           5.9947    2.2807    0.0000 H       1  UNL1        0.0744
     26 H           5.8725    2.7424    0.0000 H       1  UNL1        0.0343
     27 H           5.4739    3.4326    0.0000 H       1  UNL1        0.0343
     28 H           2.8346    3.7217    0.0000 H       1  UNL1        0.0323
     29 H           2.0462    3.4640    0.0000 H       1  UNL1        0.0323
     30 H           2.3910    0.9560    0.0000 H       1  UNL1        0.1225
     31 H           1.5391    2.7648    0.0000 H       1  UNL1        0.0427
     32 H           1.5391    1.9353    0.0000 H       1  UNL1        0.0427
     33 H           4.3958    3.9700    0.0000 H       1  UNL1        0.0573
     34 H           2.8970    0.1082    0.0000 H       1  UNL1        0.0658
     35 H           5.8243   -1.6121    0.0000 H       1  UNL1        0.0663
     36 H           1.9079   -2.7797    0.0000 H       1  UNL1        0.0660
     37 H           2.5207   -3.4068    0.0000 H       1  UNL1        0.0660
     38 H           3.1478   -2.7940    0.0000 H       1  UNL1        0.0660
     39 H           4.8947   -3.8858    0.0000 H       1  UNL1        0.0660
     40 H           5.7425   -3.6621    0.0000 H       1  UNL1        0.0660
     41 H           5.5189   -2.8143    0.0000 H       1  UNL1        0.0660
@<TRIPOS>BOND
     1     1     8    1
     2     1    17    1
     3     2    17    2
     4     3    19    1
     5     3    21    1
     6     4    20    1
     7     4    22    1
     8     5     7    1
     9     5    13    1
    10     5    30    1
    11     6     7    1
    12     6     8    1
    13     6    12    1
    14     6    23    1
    15     7     9    1
    16     7    24    1
    17     8    10    1
    18     8    25    1
    19     9    11    1
    20     9    14    2
    21    10    14    1
    22    10    26    1
    23    10    27    1
    24    11    13    1
    25    11    28    1
    26    11    29    1
    27    12    15   ar
    28    12    16   ar
    29    13    31    1
    30    13    32    1
    31    14    33    1
    32    15    17    1
    33    15    18   ar
    34    16    19   ar
    35    16    34    1
    36    18    20   ar
    37    18    35    1
    38    19    20   ar
    39    21    36    1
    40    21    37    1
    41    21    38    1
    42    22    39    1
    43    22    40    1
    44    22    41    1
