@<TRIPOS>MOLECULE
IMPHY017494
 25 24 0 0 0
SMALL
GASTEIGER

@<TRIPOS>ATOM
      1 O           2.5369    0.2500    0.0000 O.3     1  UNL1       -0.3947
      2 C           4.2690    0.2500    0.0000 C.3     1  UNL1       -0.0206
      3 C           5.1350    0.7500    0.0000 C.3     1  UNL1       -0.0481
      4 C           6.0010    0.2500    0.0000 C.3     1  UNL1       -0.0493
      5 C           3.4030    0.7500    0.0000 C.3     1  UNL1        0.0468
      6 C           4.2690   -0.7500    0.0000 C.3     1  UNL1       -0.0603
      7 C           6.8671    0.7500    0.0000 C.3     1  UNL1       -0.0350
      8 C           7.7331    0.2500    0.0000 C.2     1  UNL1       -0.0911
      9 C           8.5991    0.7500    0.0000 C.2     1  UNL1       -0.1026
     10 H           4.8059   -0.0600    0.0000 H       1  UNL1        0.0320
     11 H           5.5335    1.2250    0.0000 H       1  UNL1        0.0269
     12 H           4.7365    1.2250    0.0000 H       1  UNL1        0.0269
     13 H           5.6025   -0.2249    0.0000 H       1  UNL1        0.0268
     14 H           6.3996   -0.2249    0.0000 H       1  UNL1        0.0268
     15 H           3.8015    1.2250    0.0000 H       1  UNL1        0.0560
     16 H           3.0044    1.2250    0.0000 H       1  UNL1        0.0560
     17 H           3.6490   -0.7500    0.0000 H       1  UNL1        0.0233
     18 H           4.2690   -1.3700    0.0000 H       1  UNL1        0.0233
     19 H           4.8890   -0.7500    0.0000 H       1  UNL1        0.0233
     20 H           7.2656    1.2250    0.0000 H       1  UNL1        0.0307
     21 H           6.4685    1.2250    0.0000 H       1  UNL1        0.0307
     22 H           7.7331   -0.3700    0.0000 H       1  UNL1        0.0566
     23 H           2.0000    0.5600    0.0000 H       1  UNL1        0.2094
     24 H           9.1360    0.4400    0.0000 H       1  UNL1        0.0532
     25 H           8.5991    1.3700    0.0000 H       1  UNL1        0.0532
@<TRIPOS>BOND
     1     1     5    1
     2     1    23    1
     3     2     3    1
     4     2     5    1
     5     2     6    1
     6     2    10    1
     7     3     4    1
     8     3    11    1
     9     3    12    1
    10     4     7    1
    11     4    13    1
    12     4    14    1
    13     5    15    1
    14     5    16    1
    15     6    17    1
    16     6    18    1
    17     6    19    1
    18     7     8    1
    19     7    20    1
    20     7    21    1
    21     8     9    2
    22     8    22    1
    23     9    24    1
    24     9    25    1
