@<TRIPOS>MOLECULE
IMPHY002293
 54 56 0 0 0
SMALL
GASTEIGER

@<TRIPOS>ATOM
      1 O           6.4421    0.1754    0.0000 O.3     1  UNL1       -0.3557
      2 O           5.5442    2.7378    0.0000 O.2     1  UNL1       -0.2940
      3 C           3.8000   -0.3314    0.0000 C.3     1  UNL1       -0.0229
      4 C           3.8000   -1.3314    0.0000 C.3     1  UNL1       -0.0300
      5 C           4.6660    0.1686    0.0000 C.3     1  UNL1        0.0003
      6 C           2.9061   -1.8661    0.0000 C.3     1  UNL1       -0.0315
      7 C           5.5321   -0.3314    0.0000 C.3     1  UNL1        0.0721
      8 C           4.6660   -1.8314    0.0000 C.3     1  UNL1       -0.0466
      9 C           2.9061    0.2032    0.0000 C.3     1  UNL1       -0.0470
     10 C           5.5321   -1.3314    0.0000 C.3     1  UNL1       -0.0234
     11 C           2.0000   -1.3522    0.0000 C.3     1  UNL1       -0.0476
     12 C           2.0000   -0.3106    0.0000 C.3     1  UNL1       -0.0521
     13 C           4.6500    1.2101    0.0000 C.3     1  UNL1        0.0150
     14 C           3.8000    0.6686    0.0000 C.3     1  UNL1       -0.0589
     15 C           2.4161   -2.7378    0.0000 C.3     1  UNL1       -0.0595
     16 C           3.4160   -2.7263    0.0000 C.3     1  UNL1       -0.0595
     17 C           6.3981   -0.8314    0.0000 C.3     1  UNL1       -0.0355
     18 C           6.4501    1.2170    0.0000 C.3     1  UNL1        0.1427
     19 C           5.5480    1.7378    0.0000 C.2     1  UNL1        0.1689
     20 C           7.4501    1.2132    0.0000 C.3     1  UNL1       -0.0251
     21 C           6.9534    2.0811    0.0000 C.2     1  UNL1       -0.0528
     22 C           7.9534    2.0773    0.0000 C.2     1  UNL1       -0.0995
     23 H           3.8066   -2.1814    0.0000 H       1  UNL1        0.0311
     24 H           5.3989    0.5992    0.0000 H       1  UNL1        0.0338
     25 H           4.2675   -2.3064    0.0000 H       1  UNL1        0.0269
     26 H           5.0646   -2.3064    0.0000 H       1  UNL1        0.0269
     27 H           3.3107    0.6730    0.0000 H       1  UNL1        0.0271
     28 H           2.5124    0.6823    0.0000 H       1  UNL1        0.0271
     29 H           5.7441   -1.9140    0.0000 H       1  UNL1        0.0293
     30 H           6.1426   -1.2238    0.0000 H       1  UNL1        0.0293
     31 H           1.3891   -1.2461    0.0000 H       1  UNL1        0.0271
     32 H           1.7909   -1.9359    0.0000 H       1  UNL1        0.0271
     33 H           1.7909    0.2731    0.0000 H       1  UNL1        0.0266
     34 H           1.3891   -0.4167    0.0000 H       1  UNL1        0.0266
     35 H           4.4319    1.7905    0.0000 H       1  UNL1        0.0346
     36 H           4.0408    1.0946    0.0000 H       1  UNL1        0.0346
     37 H           4.4200    0.6686    0.0000 H       1  UNL1        0.0235
     38 H           3.8000    1.2886    0.0000 H       1  UNL1        0.0235
     39 H           3.1800    0.6686    0.0000 H       1  UNL1        0.0235
     40 H           2.8827   -3.0425    0.0000 H       1  UNL1        0.0235
     41 H           3.7322   -3.2596    0.0000 H       1  UNL1        0.0235
     42 H           3.9494   -2.4101    0.0000 H       1  UNL1        0.0235
     43 H           1.8756   -2.4341    0.0000 H       1  UNL1        0.0235
     44 H           2.1123   -3.2783    0.0000 H       1  UNL1        0.0235
     45 H           2.9566   -3.0416    0.0000 H       1  UNL1        0.0235
     46 H           6.0881   -1.3684    0.0000 H       1  UNL1        0.0257
     47 H           6.9350   -1.1414    0.0000 H       1  UNL1        0.0257
     48 H           6.7081   -0.2945    0.0000 H       1  UNL1        0.0257
     49 H           7.4477    0.5932    0.0000 H       1  UNL1        0.0265
     50 H           8.0701    1.2108    0.0000 H       1  UNL1        0.0265
     51 H           7.4525    1.8332    0.0000 H       1  UNL1        0.0265
     52 H           6.6455    2.6192    0.0000 H       1  UNL1        0.0599
     53 H           8.2614    1.5391    0.0000 H       1  UNL1        0.0533
     54 H           8.2655    2.6130    0.0000 H       1  UNL1        0.0533
@<TRIPOS>BOND
     1     1     7    1
     2     1    18    1
     3     2    19    2
     4     3     4    1
     5     3     5    1
     6     3     9    1
     7     3    14    1
     8     4     6    1
     9     4     8    1
    10     4    23    1
    11     5     7    1
    12     5    13    1
    13     5    24    1
    14     6    11    1
    15     6    15    1
    16     6    16    1
    17     7    10    1
    18     7    17    1
    19     8    10    1
    20     8    25    1
    21     8    26    1
    22     9    12    1
    23     9    27    1
    24     9    28    1
    25    10    29    1
    26    10    30    1
    27    11    12    1
    28    11    31    1
    29    11    32    1
    30    12    33    1
    31    12    34    1
    32    13    19    1
    33    13    35    1
    34    13    36    1
    35    14    37    1
    36    14    38    1
    37    14    39    1
    38    15    43    1
    39    15    44    1
    40    15    45    1
    41    16    40    1
    42    16    41    1
    43    16    42    1
    44    17    46    1
    45    17    47    1
    46    17    48    1
    47    18    19    1
    48    18    20    1
    49    18    21    1
    50    20    49    1
    51    20    50    1
    52    20    51    1
    53    21    22    2
    54    21    52    1
    55    22    53    1
    56    22    54    1
