@<TRIPOS>MOLECULE
IMPHY008113
 72 74 0 0 0
SMALL
GASTEIGER

@<TRIPOS>ATOM
      1 O           6.1942   -0.8086    0.0000 O.3     1  UNL1       -0.4498
      2 O           4.0035    1.9075    0.0000 O.3     1  UNL1       -0.4569
      3 O           4.5051   -0.7407    0.0000 O.2     1  UNL1       -0.2925
      4 O           4.8288   -2.0100    0.0000 O.3     1  UNL1       -0.3871
      5 O           7.0602    0.6914    0.0000 O.2     1  UNL1       -0.2511
      6 O           5.2927    3.0642    0.0000 O.2     1  UNL1       -0.2450
      7 O           5.5406   -3.4525    0.0000 O.2     1  UNL1       -0.2964
      8 C           5.3282   -0.3086    0.0000 C.3     1  UNL1        0.1810
      9 C           4.4622    0.1914    0.0000 C.3     1  UNL1        0.0618
     10 C           5.6601    1.2663    0.0000 C.3     1  UNL1       -0.0019
     11 C           4.6714    1.1632    0.0000 C.3     1  UNL1        0.1164
     12 C           6.0652    0.3585    0.0000 C.3     1  UNL1        0.0009
     13 C           5.3282   -1.3086    0.0000 C.2     1  UNL1        0.1838
     14 C           3.5962   -0.3086    0.0000 C.2     1  UNL1       -0.0719
     15 C           6.1601    2.1323    0.0000 C.3     1  UNL1       -0.0589
     16 C           5.3209   -2.3994    0.0000 C.3     1  UNL1        0.0368
     17 C           3.3373   -1.2745    0.0000 C.2     1  UNL1       -0.0475
     18 C           3.8373   -2.1406    0.0000 C.3     1  UNL1        0.0827
     19 C           6.0280   -3.1065    0.0000 C.2     1  UNL1       -0.0770
     20 C           4.3711   -2.7123    0.0000 C.3     1  UNL1       -0.0521
     21 C           7.0602   -0.3086    0.0000 C.2     1  UNL1        0.3049
     22 C           4.3142    2.8580    0.0000 C.2     1  UNL1        0.3395
     23 C           2.3459   -1.4051    0.0000 C.3     1  UNL1       -0.0414
     24 C           3.5785   -3.1065    0.0000 C.3     1  UNL1        0.0365
     25 C           4.8032   -4.3312    0.0000 C.3     1  UNL1        0.0415
     26 C           5.7692   -4.0724    0.0000 C.2     1  UNL1       -0.0746
     27 C           4.5444   -3.3653    0.0000 C.2     1  UNL1        0.1454
     28 C           7.9263   -0.8086    0.0000 C.3     1  UNL1        0.0333
     29 C           3.6464    3.6023    0.0000 C.ar    1  UNL1        0.0590
     30 C           5.0621   -5.2972    0.0000 C.3     1  UNL1       -0.0496
     31 C           4.0962   -5.0383    0.0000 C.3     1  UNL1       -0.0496
     32 C           3.9570    4.5528    0.0000 C.ar    1  UNL1       -0.0478
     33 C           2.6678    3.3961    0.0000 C.ar    1  UNL1       -0.0478
     34 C           3.2892    5.2972    0.0000 C.ar    1  UNL1       -0.0610
     35 C           2.0000    4.1404    0.0000 C.ar    1  UNL1       -0.0610
     36 C           2.3107    5.0909    0.0000 C.ar    1  UNL1       -0.0617
     37 H           3.7752    0.6919    0.0000 H       1  UNL1        0.0423
     38 H           5.3226    1.7864    0.0000 H       1  UNL1        0.0335
     39 H           4.0722    1.0040    0.0000 H       1  UNL1        0.0744
     40 H           6.4306   -0.1424    0.0000 H       1  UNL1        0.0312
     41 H           6.6017    0.6692    0.0000 H       1  UNL1        0.0312
     42 H           3.1043    0.0688    0.0000 H       1  UNL1        0.0578
     43 H           6.6970    1.8223    0.0000 H       1  UNL1        0.0234
     44 H           6.4701    2.6692    0.0000 H       1  UNL1        0.0234
     45 H           5.6232    2.4423    0.0000 H       1  UNL1        0.0234
     46 H           5.1774   -3.0026    0.0000 H       1  UNL1        0.0419
     47 H           4.1116   -1.5845    0.0000 H       1  UNL1        0.0644
     48 H           6.6269   -2.9460    0.0000 H       1  UNL1        0.0576
     49 H           4.1771   -2.1234    0.0000 H       1  UNL1        0.0239
     50 H           3.7822   -2.9063    0.0000 H       1  UNL1        0.0239
     51 H           4.5651   -3.3012    0.0000 H       1  UNL1        0.0239
     52 H           2.2649   -0.7904    0.0000 H       1  UNL1        0.0275
     53 H           1.7312   -1.4860    0.0000 H       1  UNL1        0.0275
     54 H           2.4268   -2.0198    0.0000 H       1  UNL1        0.0275
     55 H           2.9796   -2.9460    0.0000 H       1  UNL1        0.0370
     56 H           3.4180   -3.7054    0.0000 H       1  UNL1        0.0370
     57 H           6.2076   -4.5108    0.0000 H       1  UNL1        0.0579
     58 H           7.6163   -1.3456    0.0000 H       1  UNL1        0.0342
     59 H           8.4632   -1.1186    0.0000 H       1  UNL1        0.0342
     60 H           8.2363   -0.2717    0.0000 H       1  UNL1        0.0342
     61 H           3.6577   -4.5999    0.0000 H       1  UNL1        0.0242
     62 H           3.6577   -5.4768    0.0000 H       1  UNL1        0.0242
     63 H           4.5346   -5.4768    0.0000 H       1  UNL1        0.0242
     64 H           4.4633   -5.4577    0.0000 H       1  UNL1        0.0242
     65 H           5.2226   -5.8960    0.0000 H       1  UNL1        0.0242
     66 H           5.6610   -5.1366    0.0000 H       1  UNL1        0.0242
     67 H           4.6423   -1.4187    0.0000 H       1  UNL1        0.2102
     68 H           4.5637    4.6807    0.0000 H       1  UNL1        0.0626
     69 H           2.4752    2.8068    0.0000 H       1  UNL1        0.0626
     70 H           3.4818    5.8865    0.0000 H       1  UNL1        0.0618
     71 H           1.3933    4.0126    0.0000 H       1  UNL1        0.0618
     72 H           1.8966    5.5524    0.0000 H       1  UNL1        0.0618
@<TRIPOS>BOND
     1     8     1    1
     2     1    21    1
     3    11     2    1
     4     2    22    1
     5     3    13    2
     6    18     4    1
     7     4    67    1
     8     5    21    2
     9     6    22    2
    10     7    27    2
    11     8     9    1
    12     8    12    1
    13     8    13    1
    14     9    11    1
    15     9    14    1
    16     9    37    1
    17    10    11    1
    18    10    12    1
    19    10    15    1
    20    10    38    1
    21    11    39    1
    22    12    40    1
    23    12    41    1
    24    13    16    1
    25    14    17    2
    26    14    42    1
    27    15    43    1
    28    15    44    1
    29    15    45    1
    30    16    19    1
    31    16    20    1
    32    16    46    1
    33    17    18    1
    34    17    23    1
    35    18    24    1
    36    18    47    1
    37    19    26    2
    38    19    48    1
    39    20    49    1
    40    20    50    1
    41    20    51    1
    42    21    28    1
    43    22    29    1
    44    23    52    1
    45    23    53    1
    46    23    54    1
    47    24    27    1
    48    24    55    1
    49    24    56    1
    50    25    26    1
    51    25    27    1
    52    25    30    1
    53    25    31    1
    54    26    57    1
    55    28    58    1
    56    28    59    1
    57    28    60    1
    58    29    32   ar
    59    29    33   ar
    60    30    64    1
    61    30    65    1
    62    30    66    1
    63    31    61    1
    64    31    62    1
    65    31    63    1
    66    32    34   ar
    67    32    68    1
    68    33    35   ar
    69    33    69    1
    70    34    36   ar
    71    34    70    1
    72    35    36   ar
    73    35    71    1
    74    36    72    1
