@<TRIPOS>MOLECULE
IMPHY002903
 54 56 0 0 0
SMALL
GASTEIGER

@<TRIPOS>ATOM
      1 O           6.3981    0.5746    0.0000 O.2     1  UNL1       -0.4507
      2 O           8.1301    2.5746    0.0000 O.3     1  UNL1       -0.4883
      3 O          10.7282   -0.9254    0.0000 O.3     1  UNL1       -0.4948
      4 O           2.8680    2.5988    0.0000 O.3     1  UNL1       -0.4885
      5 O           4.6497    3.6092    0.0000 O.3     1  UNL1       -0.5027
      6 O           6.3981    3.5746    0.0000 O.2     1  UNL1       -0.2830
      7 O           2.8680    0.5505    0.0000 O.3     1  UNL1       -0.5031
      8 C           8.1301    0.5746    0.0000 C.ar    1  UNL1        0.0216
      9 C           7.2641    1.0746    0.0000 C.ar    1  UNL1        0.1808
     10 C           8.9962   -0.9254    0.0000 C.ar    1  UNL1       -0.0013
     11 C           5.5320    2.0746    0.0000 C.ar    1  UNL1        0.1128
     12 C           8.1301   -0.4254    0.0000 C.ar    1  UNL1       -0.0440
     13 C           5.5320    1.0746    0.0000 C.ar    1  UNL1        0.1468
     14 C           7.2641    2.0746    0.0000 C.ar    1  UNL1        0.2107
     15 C           8.9962   -1.9254    0.0000 C.3     1  UNL1       -0.0058
     16 C           9.8622   -0.4254    0.0000 C.ar    1  UNL1        0.1236
     17 C           6.3981    2.5746    0.0000 C.ar    1  UNL1        0.2382
     18 C           8.9962    1.0746    0.0000 C.ar    1  UNL1       -0.0475
     19 C           4.6381    2.6093    0.0000 C.ar    1  UNL1        0.1769
     20 C           9.8622    0.5746    0.0000 C.ar    1  UNL1       -0.0190
     21 C           4.6381    0.5399    0.0000 C.ar    1  UNL1        0.0268
     22 C           3.7320    2.0954    0.0000 C.ar    1  UNL1        0.2040
     23 C           3.7320    1.0538    0.0000 C.ar    1  UNL1        0.1657
     24 C           9.8622   -2.4254    0.0000 C.2     1  UNL1       -0.0809
     25 C           9.8622   -3.4254    0.0000 C.2     1  UNL1       -0.0793
     26 C          10.7282   -3.9254    0.0000 C.3     1  UNL1       -0.0440
     27 C           8.9962   -3.9254    0.0000 C.3     1  UNL1       -0.0440
     28 C           8.1301    3.5746    0.0000 C.3     1  UNL1        0.0791
     29 C          11.5942   -0.4254    0.0000 C.3     1  UNL1        0.0788
     30 C           2.0000    2.1021    0.0000 C.3     1  UNL1        0.0791
     31 H           7.5932   -0.7354    0.0000 H       1  UNL1        0.0629
     32 H           8.3856   -1.8177    0.0000 H       1  UNL1        0.0357
     33 H           8.7841   -2.5080    0.0000 H       1  UNL1        0.0357
     34 H           8.9962    1.6946    0.0000 H       1  UNL1        0.0626
     35 H          10.3991    0.8846    0.0000 H       1  UNL1        0.0654
     36 H           4.6453   -0.0800    0.0000 H       1  UNL1        0.0692
     37 H          10.3991   -2.1154    0.0000 H       1  UNL1        0.0575
     38 H          10.4182   -4.4623    0.0000 H       1  UNL1        0.0274
     39 H           8.6862   -3.3885    0.0000 H       1  UNL1        0.0274
     40 H           8.4592   -4.2354    0.0000 H       1  UNL1        0.0274
     41 H           9.3062   -4.4623    0.0000 H       1  UNL1        0.0274
     42 H          11.2651   -4.2354    0.0000 H       1  UNL1        0.0274
     43 H          11.0382   -3.3885    0.0000 H       1  UNL1        0.0274
     44 H           4.1164    3.9254    0.0000 H       1  UNL1        0.2923
     45 H           8.7501    3.5746    0.0000 H       1  UNL1        0.0660
     46 H           8.1301    4.1946    0.0000 H       1  UNL1        0.0660
     47 H           7.5101    3.5746    0.0000 H       1  UNL1        0.0660
     48 H          11.9042   -0.9623    0.0000 H       1  UNL1        0.0660
     49 H          12.1312   -0.1154    0.0000 H       1  UNL1        0.0660
     50 H          11.2842    0.1115    0.0000 H       1  UNL1        0.0660
     51 H           2.8703   -0.0695    0.0000 H       1  UNL1        0.2923
     52 H           1.6921    2.6402    0.0000 H       1  UNL1        0.0660
     53 H           1.4619    1.7942    0.0000 H       1  UNL1        0.0660
     54 H           2.3079    1.5640    0.0000 H       1  UNL1        0.0660
@<TRIPOS>BOND
     1     1     9   ar
     2     1    13   ar
     3     2    14    1
     4     2    28    1
     5     3    16    1
     6     3    29    1
     7     4    22    1
     8     4    30    1
     9     5    19    1
    10     5    44    1
    11     6    17    2
    12     7    23    1
    13     7    51    1
    14     8     9    1
    15     8    12   ar
    16     8    18   ar
    17     9    14   ar
    18    10    12   ar
    19    10    15    1
    20    10    16   ar
    21    11    13   ar
    22    11    17   ar
    23    11    19   ar
    24    12    31    1
    25    13    21   ar
    26    14    17   ar
    27    15    24    1
    28    15    32    1
    29    15    33    1
    30    16    20   ar
    31    18    20   ar
    32    18    34    1
    33    19    22   ar
    34    20    35    1
    35    21    23   ar
    36    21    36    1
    37    22    23   ar
    38    24    25    2
    39    24    37    1
    40    25    26    1
    41    25    27    1
    42    26    38    1
    43    26    42    1
    44    26    43    1
    45    27    39    1
    46    27    40    1
    47    27    41    1
    48    28    45    1
    49    28    46    1
    50    28    47    1
    51    29    48    1
    52    29    49    1
    53    29    50    1
    54    30    52    1
    55    30    53    1
    56    30    54    1
