@<TRIPOS>MOLECULE
IMPHY002994
 43 42 0 0 0
SMALL
GASTEIGER

@<TRIPOS>ATOM
      1 O           2.0000    0.7500    0.0000 O.co2   1  UNL1       -0.5498
      2 O           2.8660   -0.7500    0.0000 O.co2   1  UNL1       -0.5498
      3 C           8.9282    0.7500    0.0000 C.3     1  UNL1       -0.0531
      4 C           8.0622    0.2500    0.0000 C.3     1  UNL1       -0.0531
      5 C           9.7942    0.2500    0.0000 C.3     1  UNL1       -0.0531
      6 C           7.1962    0.7500    0.0000 C.3     1  UNL1       -0.0531
      7 C          10.6603    0.7500    0.0000 C.3     1  UNL1       -0.0531
      8 C           6.3301    0.2500    0.0000 C.3     1  UNL1       -0.0530
      9 C          11.5263    0.2500    0.0000 C.3     1  UNL1       -0.0531
     10 C           5.4641    0.7500    0.0000 C.3     1  UNL1       -0.0527
     11 C          12.3923    0.7500    0.0000 C.3     1  UNL1       -0.0533
     12 C           4.5981    0.2500    0.0000 C.3     1  UNL1       -0.0480
     13 C          13.2583    0.2500    0.0000 C.3     1  UNL1       -0.0559
     14 C           3.7320    0.7500    0.0000 C.3     1  UNL1       -0.0132
     15 C          14.1244    0.7500    0.0000 C.3     1  UNL1       -0.0653
     16 C           2.8660    0.2500    0.0000 C.2     1  UNL1        0.0417
     17 H           9.3267    1.2250    0.0000 H       1  UNL1        0.0265
     18 H           8.5297    1.2250    0.0000 H       1  UNL1        0.0265
     19 H           7.6636   -0.2249    0.0000 H       1  UNL1        0.0265
     20 H           8.4607   -0.2249    0.0000 H       1  UNL1        0.0265
     21 H           9.3957   -0.2249    0.0000 H       1  UNL1        0.0265
     22 H          10.1928   -0.2249    0.0000 H       1  UNL1        0.0265
     23 H           7.5947    1.2250    0.0000 H       1  UNL1        0.0265
     24 H           6.7976    1.2250    0.0000 H       1  UNL1        0.0265
     25 H          11.0588    1.2250    0.0000 H       1  UNL1        0.0265
     26 H          10.2617    1.2250    0.0000 H       1  UNL1        0.0265
     27 H           5.9316   -0.2249    0.0000 H       1  UNL1        0.0265
     28 H           6.7287   -0.2249    0.0000 H       1  UNL1        0.0265
     29 H          11.1278   -0.2249    0.0000 H       1  UNL1        0.0265
     30 H          11.9248   -0.2249    0.0000 H       1  UNL1        0.0265
     31 H           5.8626    1.2250    0.0000 H       1  UNL1        0.0265
     32 H           5.0656    1.2250    0.0000 H       1  UNL1        0.0265
     33 H          12.7908    1.2250    0.0000 H       1  UNL1        0.0265
     34 H          11.9938    1.2250    0.0000 H       1  UNL1        0.0265
     35 H           4.1996   -0.2249    0.0000 H       1  UNL1        0.0269
     36 H           4.9966   -0.2249    0.0000 H       1  UNL1        0.0269
     37 H          12.8598   -0.2249    0.0000 H       1  UNL1        0.0263
     38 H          13.6569   -0.2249    0.0000 H       1  UNL1        0.0263
     39 H           4.1306    1.2250    0.0000 H       1  UNL1        0.0325
     40 H           3.3335    1.2250    0.0000 H       1  UNL1        0.0325
     41 H          14.4344    0.2131    0.0000 H       1  UNL1        0.0230
     42 H          14.6613    1.0600    0.0000 H       1  UNL1        0.0230
     43 H          13.8144    1.2869    0.0000 H       1  UNL1        0.0230
@<TRIPOS>UNITY_ATOM_ATTR
1 1
charge -1
@<TRIPOS>BOND
     1     1    16   ar
     2     2    16   ar
     3     3     4    1
     4     3     5    1
     5     3    17    1
     6     3    18    1
     7     4     6    1
     8     4    19    1
     9     4    20    1
    10     5     7    1
    11     5    21    1
    12     5    22    1
    13     6     8    1
    14     6    23    1
    15     6    24    1
    16     7     9    1
    17     7    25    1
    18     7    26    1
    19     8    10    1
    20     8    27    1
    21     8    28    1
    22     9    11    1
    23     9    29    1
    24     9    30    1
    25    10    12    1
    26    10    31    1
    27    10    32    1
    28    11    13    1
    29    11    33    1
    30    11    34    1
    31    12    14    1
    32    12    35    1
    33    12    36    1
    34    13    15    1
    35    13    37    1
    36    13    38    1
    37    14    16    1
    38    14    39    1
    39    14    40    1
    40    15    41    1
    41    15    42    1
    42    15    43    1
