@<TRIPOS>MOLECULE
IMPHY011106
 179 188 0 0 0
SMALL
GASTEIGER

@<TRIPOS>ATOM
      1 O          13.2578    6.0909    0.0000 O.3     1  UNL1       -0.3448
      2 O          11.7287    7.3229    0.0000 O.3     1  UNL1       -0.3515
      3 O          11.8347   -2.1532    0.0000 O.3     1  UNL1       -0.3451
      4 O          10.1026   -2.1532    0.0000 O.3     1  UNL1       -0.3405
      5 O          15.8923    9.1903    0.0000 O.3     1  UNL1       -0.3484
      6 O          11.8347   -4.1532    0.0000 O.3     1  UNL1       -0.3841
      7 O          10.1026   -5.1532    0.0000 O.3     1  UNL1       -0.3864
      8 O           8.3706   -4.1532    0.0000 O.3     1  UNL1       -0.3401
      9 O          17.3949    8.3287    0.0000 O.3     1  UNL1       -0.3405
     10 O           8.3706   -1.1531    0.0000 O.3     1  UNL1       -0.3924
     11 O          16.8871   10.9253    0.0000 O.3     1  UNL1       -0.3841
     12 O           9.2366   -5.6532    0.0000 O.3     1  UNL1       -0.3405
     13 O          18.8871   10.9313    0.0000 O.3     1  UNL1       -0.3864
     14 O          19.8923    9.2022    0.0000 O.3     1  UNL1       -0.3865
     15 O           6.6385   -5.1532    0.0000 O.3     1  UNL1       -0.3377
     16 O           6.6385   -7.1532    0.0000 O.3     1  UNL1       -0.3401
     17 O          19.8974    7.4702    0.0000 O.3     1  UNL1       -0.3924
     18 O           8.3706   -8.1532    0.0000 O.3     1  UNL1       -0.3865
     19 O           5.0109   -5.7456    0.0000 O.3     1  UNL1       -0.3405
     20 O          10.9686   -6.6532    0.0000 O.3     1  UNL1       -0.3924
     21 O           7.5045   -8.6532    0.0000 O.3     1  UNL1       -0.3461
     22 O           5.9545   -3.2738    0.0000 O.3     1  UNL1       -0.3841
     23 O           3.9849   -2.9264    0.0000 O.3     1  UNL1       -0.3864
     24 O           4.9065   -8.1532    0.0000 O.3     1  UNL1       -0.3841
     25 O           2.6993   -4.4585    0.0000 O.3     1  UNL1       -0.3865
     26 O           4.9065  -10.1531    0.0000 O.3     1  UNL1       -0.3864
     27 O           6.6385  -11.1531    0.0000 O.3     1  UNL1       -0.3869
     28 O           2.3985   -6.1643    0.0000 O.3     1  UNL1       -0.3924
     29 C          11.8639    4.0437    0.0000 C.3     1  UNL1       -0.0233
     30 C          12.7319    3.5471    0.0000 C.3     1  UNL1       -0.0295
     31 C          12.0694    5.0163    0.0000 C.3     1  UNL1       -0.0015
     32 C          12.7357    2.5471    0.0000 C.3     1  UNL1       -0.0306
     33 C          13.0577    5.1232    0.0000 C.3     1  UNL1        0.0660
     34 C          11.8716    2.0437    0.0000 C.3     1  UNL1       -0.0285
     35 C          13.4663    4.2170    0.0000 C.3     1  UNL1       -0.0226
     36 C          10.9998    3.5404    0.0000 C.3     1  UNL1       -0.0467
     37 C          11.6671    5.9189    0.0000 C.3     1  UNL1        0.0160
     38 C          11.0037    2.5404    0.0000 C.3     1  UNL1       -0.0486
     39 C          11.8596    1.0022    0.0000 C.3     1  UNL1       -0.0078
     40 C          12.4001    6.5817    0.0000 C.3     1  UNL1        0.1728
     41 C          10.9960    4.5404    0.0000 C.3     1  UNL1       -0.0590
     42 C          13.6477    2.0437    0.0000 C.3     1  UNL1       -0.0311
     43 C          12.7597    0.4779    0.0000 C.2     1  UNL1       -0.0648
     44 C          10.9097    0.4779    0.0000 C.3     1  UNL1       -0.0413
     45 C          13.6597    1.0022    0.0000 C.2     1  UNL1       -0.0839
     46 C          10.6887    6.1256    0.0000 C.3     1  UNL1       -0.0572
     47 C          10.9955    1.5055    0.0000 C.3     1  UNL1       -0.0556
     48 C          12.8975    7.4492    0.0000 C.3     1  UNL1        0.0020
     49 C          12.7722   -0.6070    0.0000 C.3     1  UNL1       -0.0047
     50 C          10.8971   -0.6070    0.0000 C.3     1  UNL1       -0.0254
     51 C          11.8347   -1.1531    0.0000 C.3     1  UNL1        0.0655
     52 C          13.8975    7.4522    0.0000 C.3     1  UNL1       -0.0435
     53 C          12.0349    8.2748    0.0000 C.3     1  UNL1        0.0397
     54 C          14.3949    8.3198    0.0000 C.3     1  UNL1       -0.0201
     55 C          10.9686   -2.6532    0.0000 C.3     1  UNL1        0.1882
     56 C          15.3949    8.3227    0.0000 C.3     1  UNL1        0.0533
     57 C          13.8923    9.1843    0.0000 C.3     1  UNL1       -0.0603
     58 C          10.9686   -3.6532    0.0000 C.3     1  UNL1        0.1341
     59 C          10.1026   -4.1532    0.0000 C.3     1  UNL1        0.1144
     60 C           9.2366   -2.6532    0.0000 C.3     1  UNL1        0.1134
     61 C           9.2366   -3.6532    0.0000 C.3     1  UNL1        0.1184
     62 C          16.8923    9.1933    0.0000 C.3     1  UNL1        0.1879
     63 C           8.3706   -2.1532    0.0000 C.3     1  UNL1        0.0730
     64 C          17.3897   10.0608    0.0000 C.3     1  UNL1        0.1341
     65 C          18.3897   10.0638    0.0000 C.3     1  UNL1        0.1141
     66 C           8.3706   -5.1532    0.0000 C.3     1  UNL1        0.1888
     67 C          18.3949    8.3317    0.0000 C.3     1  UNL1        0.1130
     68 C          18.8923    9.1992    0.0000 C.3     1  UNL1        0.1119
     69 C           7.5045   -5.6532    0.0000 C.3     1  UNL1        0.1410
     70 C          18.8974    7.4672    0.0000 C.3     1  UNL1        0.0730
     71 C           7.5045   -6.6532    0.0000 C.3     1  UNL1        0.1209
     72 C           9.2366   -6.6532    0.0000 C.3     1  UNL1        0.1130
     73 C           8.3706   -7.1532    0.0000 C.3     1  UNL1        0.1123
     74 C          10.1026   -7.1532    0.0000 C.3     1  UNL1        0.0730
     75 C           5.6537   -4.9795    0.0000 C.3     1  UNL1        0.1885
     76 C           6.6385   -8.1532    0.0000 C.3     1  UNL1        0.1880
     77 C           5.3118   -4.0397    0.0000 C.3     1  UNL1        0.1341
     78 C           4.3269   -3.8661    0.0000 C.3     1  UNL1        0.1141
     79 C           5.7725   -8.6532    0.0000 C.3     1  UNL1        0.1341
     80 C           4.0261   -5.5719    0.0000 C.3     1  UNL1        0.1130
     81 C           3.6841   -4.6322    0.0000 C.3     1  UNL1        0.1119
     82 C           5.7725   -9.6532    0.0000 C.3     1  UNL1        0.1137
     83 C           7.5045   -9.6532    0.0000 C.3     1  UNL1        0.0792
     84 C           6.6385  -10.1531    0.0000 C.3     1  UNL1        0.1069
     85 C           3.3833   -6.3380    0.0000 C.3     1  UNL1        0.0730
     86 H          13.2996    3.2978    0.0000 H       1  UNL1        0.0310
     87 H          11.4528    4.9510    0.0000 H       1  UNL1        0.0335
     88 H          13.2690    2.8633    0.0000 H       1  UNL1        0.0310
     89 H          13.6740    5.1912    0.0000 H       1  UNL1        0.0600
     90 H          12.4074    1.7317    0.0000 H       1  UNL1        0.0312
     91 H          13.8337    3.7175    0.0000 H       1  UNL1        0.0293
     92 H          14.0016    4.5298    0.0000 H       1  UNL1        0.0293
     93 H          10.7855    4.1222    0.0000 H       1  UNL1        0.0271
     94 H          10.3897    3.4304    0.0000 H       1  UNL1        0.0271
     95 H          11.5056    6.5175    0.0000 H       1  UNL1        0.0354
     96 H          10.3927    2.6457    0.0000 H       1  UNL1        0.0268
     97 H          10.7939    1.9570    0.0000 H       1  UNL1        0.0268
     98 H          11.3039    5.0785    0.0000 H       1  UNL1        0.0235
     99 H          10.4579    4.8483    0.0000 H       1  UNL1        0.0235
    100 H          10.6881    4.0022    0.0000 H       1  UNL1        0.0235
    101 H          14.2597    1.9447    0.0000 H       1  UNL1        0.0310
    102 H          13.8500    2.6298    0.0000 H       1  UNL1        0.0310
    103 H          10.7074    1.0640    0.0000 H       1  UNL1        0.0274
    104 H          10.2976    0.3789    0.0000 H       1  UNL1        0.0274
    105 H          14.1990    0.6963    0.0000 H       1  UNL1        0.0572
    106 H          10.8168    6.7322    0.0000 H       1  UNL1        0.0234
    107 H          10.0821    6.2538    0.0000 H       1  UNL1        0.0234
    108 H          10.5605    5.5190    0.0000 H       1  UNL1        0.0234
    109 H          11.3076    2.0412    0.0000 H       1  UNL1        0.0238
    110 H          10.4598    1.8176    0.0000 H       1  UNL1        0.0238
    111 H          10.6834    0.9698    0.0000 H       1  UNL1        0.0238
    112 H          13.0033    8.0602    0.0000 H       1  UNL1        0.0317
    113 H          12.3142    7.6596    0.0000 H       1  UNL1        0.0317
    114 H          12.9880   -1.1883    0.0000 H       1  UNL1        0.0335
    115 H          13.3818   -0.4939    0.0000 H       1  UNL1        0.0335
    116 H          10.2875   -0.4939    0.0000 H       1  UNL1        0.0290
    117 H          10.6813   -1.1883    0.0000 H       1  UNL1        0.0290
    118 H          12.3722   -1.4621    0.0000 H       1  UNL1        0.0600
    119 H          13.7916    6.8413    0.0000 H       1  UNL1        0.0270
    120 H          14.4807    7.2419    0.0000 H       1  UNL1        0.0270
    121 H          12.6251    8.0850    0.0000 H       1  UNL1        0.0525
    122 H          12.2247    8.8651    0.0000 H       1  UNL1        0.0525
    123 H          11.4447    8.4647    0.0000 H       1  UNL1        0.0525
    124 H          13.7749    8.3179    0.0000 H       1  UNL1        0.0320
    125 H          10.9686   -2.0332    0.0000 H       1  UNL1        0.0937
    126 H          15.2890    7.7118    0.0000 H       1  UNL1        0.0563
    127 H          15.9781    8.1124    0.0000 H       1  UNL1        0.0563
    128 H          14.4283    9.4959    0.0000 H       1  UNL1        0.0233
    129 H          13.5807    9.7203    0.0000 H       1  UNL1        0.0233
    130 H          13.3563    8.8727    0.0000 H       1  UNL1        0.0233
    131 H          10.9686   -4.2732    0.0000 H       1  UNL1        0.0671
    132 H           9.5657   -4.4632    0.0000 H       1  UNL1        0.0648
    133 H           9.2366   -2.0332    0.0000 H       1  UNL1        0.0647
    134 H           8.6997   -3.3432    0.0000 H       1  UNL1        0.0651
    135 H          12.3716   -3.8432    0.0000 H       1  UNL1        0.2101
    136 H          16.5839    8.6554    0.0000 H       1  UNL1        0.0937
    137 H           7.7600   -2.0455    0.0000 H       1  UNL1        0.0584
    138 H           8.1585   -2.7358    0.0000 H       1  UNL1        0.0584
    139 H          10.6396   -5.4632    0.0000 H       1  UNL1        0.2100
    140 H          16.7697   10.0589    0.0000 H       1  UNL1        0.0671
    141 H          18.0781   10.5998    0.0000 H       1  UNL1        0.0648
    142 H           7.8336   -4.8431    0.0000 H       1  UNL1        0.0938
    143 H          18.0865    7.7938    0.0000 H       1  UNL1        0.0647
    144 H          19.2007    9.7371    0.0000 H       1  UNL1        0.0647
    145 H           7.8336   -0.8431    0.0000 H       1  UNL1        0.2095
    146 H           8.0415   -5.9632    0.0000 H       1  UNL1        0.0675
    147 H          17.1955   11.4631    0.0000 H       1  UNL1        0.2101
    148 H          18.3155    7.2534    0.0000 H       1  UNL1        0.0584
    149 H          19.0069    6.8569    0.0000 H       1  UNL1        0.0584
    150 H           7.5045   -7.2732    0.0000 H       1  UNL1        0.0651
    151 H          19.5071   10.9331    0.0000 H       1  UNL1        0.2100
    152 H           9.7735   -6.3431    0.0000 H       1  UNL1        0.0647
    153 H           8.9075   -7.4632    0.0000 H       1  UNL1        0.0647
    154 H          20.2007    9.7401    0.0000 H       1  UNL1        0.2100
    155 H           9.7041   -7.6281    0.0000 H       1  UNL1        0.0584
    156 H          10.5011   -7.6281    0.0000 H       1  UNL1        0.0584
    157 H           6.0523   -4.5045    0.0000 H       1  UNL1        0.0938
    158 H          20.2090    6.9342    0.0000 H       1  UNL1        0.2095
    159 H           8.9075   -8.4632    0.0000 H       1  UNL1        0.2100
    160 H           6.1016   -7.8432    0.0000 H       1  UNL1        0.0937
    161 H           5.0997   -3.4571    0.0000 H       1  UNL1        0.0671
    162 H           3.7163   -3.7584    0.0000 H       1  UNL1        0.0648
    163 H           6.3094   -8.9632    0.0000 H       1  UNL1        0.0671
    164 H          11.5056   -6.9632    0.0000 H       1  UNL1        0.2095
    165 H           4.2382   -6.1545    0.0000 H       1  UNL1        0.0647
    166 H           4.2947   -4.7398    0.0000 H       1  UNL1        0.0647
    167 H           5.2356   -9.3432    0.0000 H       1  UNL1        0.0647
    168 H           5.7424   -2.6912    0.0000 H       1  UNL1        0.2101
    169 H           7.7166  -10.2358    0.0000 H       1  UNL1        0.0587
    170 H           8.1151   -9.5455    0.0000 H       1  UNL1        0.0587
    171 H           7.1754  -10.4631    0.0000 H       1  UNL1        0.0643
    172 H           3.1713   -6.9206    0.0000 H       1  UNL1        0.0584
    173 H           3.9203   -6.6480    0.0000 H       1  UNL1        0.0584
    174 H           3.3743   -2.8187    0.0000 H       1  UNL1        0.2100
    175 H           4.3695   -8.4632    0.0000 H       1  UNL1        0.2101
    176 H           2.4872   -3.8759    0.0000 H       1  UNL1        0.2100
    177 H           4.9065  -10.7731    0.0000 H       1  UNL1        0.2100
    178 H           7.1754  -11.4631    0.0000 H       1  UNL1        0.2100
    179 H           2.0000   -6.6393    0.0000 H       1  UNL1        0.2095
@<TRIPOS>BOND
     1     1    33    1
     2     1    40    1
     3     2    40    1
     4     2    53    1
     5     3    51    1
     6     3    55    1
     7     4    55    1
     8     4    60    1
     9     5    56    1
    10     5    62    1
    11     6    58    1
    12     6   135    1
    13     7    59    1
    14     7   139    1
    15     8    61    1
    16     8    66    1
    17     9    62    1
    18     9    67    1
    19    10    63    1
    20    10   145    1
    21    11    64    1
    22    11   147    1
    23    12    66    1
    24    12    72    1
    25    13    65    1
    26    13   151    1
    27    14    68    1
    28    14   154    1
    29    15    69    1
    30    15    75    1
    31    16    71    1
    32    16    76    1
    33    17    70    1
    34    17   158    1
    35    18    73    1
    36    18   159    1
    37    19    75    1
    38    19    80    1
    39    20    74    1
    40    20   164    1
    41    21    76    1
    42    21    83    1
    43    22    77    1
    44    22   168    1
    45    23    78    1
    46    23   174    1
    47    24    79    1
    48    24   175    1
    49    25    81    1
    50    25   176    1
    51    26    82    1
    52    26   177    1
    53    27    84    1
    54    27   178    1
    55    28    85    1
    56    28   179    1
    57    29    30    1
    58    29    31    1
    59    29    36    1
    60    29    41    1
    61    30    32    1
    62    30    35    1
    63    30    86    1
    64    31    33    1
    65    31    37    1
    66    31    87    1
    67    32    34    1
    68    32    42    1
    69    32    88    1
    70    33    35    1
    71    33    89    1
    72    34    38    1
    73    34    39    1
    74    34    90    1
    75    35    91    1
    76    35    92    1
    77    36    38    1
    78    36    93    1
    79    36    94    1
    80    37    40    1
    81    37    46    1
    82    37    95    1
    83    38    96    1
    84    38    97    1
    85    39    43    1
    86    39    44    1
    87    39    47    1
    88    40    48    1
    89    41    98    1
    90    41    99    1
    91    41   100    1
    92    42    45    1
    93    42   101    1
    94    42   102    1
    95    43    45    2
    96    43    49    1
    97    44    50    1
    98    44   103    1
    99    44   104    1
   100    45   105    1
   101    46   106    1
   102    46   107    1
   103    46   108    1
   104    47   109    1
   105    47   110    1
   106    47   111    1
   107    48    52    1
   108    48   112    1
   109    48   113    1
   110    49    51    1
   111    49   114    1
   112    49   115    1
   113    50    51    1
   114    50   116    1
   115    50   117    1
   116    51   118    1
   117    52    54    1
   118    52   119    1
   119    52   120    1
   120    53   121    1
   121    53   122    1
   122    53   123    1
   123    54    56    1
   124    54    57    1
   125    54   124    1
   126    55    58    1
   127    55   125    1
   128    56   126    1
   129    56   127    1
   130    57   128    1
   131    57   129    1
   132    57   130    1
   133    58    59    1
   134    58   131    1
   135    59    61    1
   136    59   132    1
   137    60    61    1
   138    60    63    1
   139    60   133    1
   140    61   134    1
   141    62    64    1
   142    62   136    1
   143    63   137    1
   144    63   138    1
   145    64    65    1
   146    64   140    1
   147    65    68    1
   148    65   141    1
   149    66    69    1
   150    66   142    1
   151    67    68    1
   152    67    70    1
   153    67   143    1
   154    68   144    1
   155    69    71    1
   156    69   146    1
   157    70   148    1
   158    70   149    1
   159    71    73    1
   160    71   150    1
   161    72    73    1
   162    72    74    1
   163    72   152    1
   164    73   153    1
   165    74   155    1
   166    74   156    1
   167    75    77    1
   168    75   157    1
   169    76    79    1
   170    76   160    1
   171    77    78    1
   172    77   161    1
   173    78    81    1
   174    78   162    1
   175    79    82    1
   176    79   163    1
   177    80    81    1
   178    80    85    1
   179    80   165    1
   180    81   166    1
   181    82    84    1
   182    82   167    1
   183    83    84    1
   184    83   169    1
   185    83   170    1
   186    84   171    1
   187    85   172    1
   188    85   173    1
