@<TRIPOS>MOLECULE
IMPHY015345
 22 21 0 0 0
SMALL
GASTEIGER

@<TRIPOS>ATOM
      1 O           5.4641    1.2500    0.0000 O.2     1  UNL1       -0.2974
      2 C           4.5981   -0.2500    0.0000 C.3     1  UNL1        0.0144
      3 C           3.7320    0.2500    0.0000 C.3     1  UNL1       -0.0440
      4 C           2.8660   -0.2500    0.0000 C.3     1  UNL1       -0.0553
      5 C           4.5981   -1.2500    0.0000 C.3     1  UNL1       -0.0557
      6 C           5.4641    0.2500    0.0000 C.2     1  UNL1        0.1331
      7 C           2.0000    0.2500    0.0000 C.3     1  UNL1       -0.0653
      8 C           6.3301   -0.2500    0.0000 C.3     1  UNL1       -0.0058
      9 H           5.1350   -0.5600    0.0000 H       1  UNL1        0.0374
     10 H           4.1306    0.7249    0.0000 H       1  UNL1        0.0272
     11 H           3.3335    0.7249    0.0000 H       1  UNL1        0.0272
     12 H           2.4675   -0.7249    0.0000 H       1  UNL1        0.0263
     13 H           3.2646   -0.7249    0.0000 H       1  UNL1        0.0263
     14 H           3.9781   -1.2500    0.0000 H       1  UNL1        0.0236
     15 H           4.5981   -1.8700    0.0000 H       1  UNL1        0.0236
     16 H           5.2181   -1.2500    0.0000 H       1  UNL1        0.0236
     17 H           2.3100    0.7869    0.0000 H       1  UNL1        0.0230
     18 H           1.4631    0.5600    0.0000 H       1  UNL1        0.0230
     19 H           1.6900   -0.2869    0.0000 H       1  UNL1        0.0230
     20 H           6.0201   -0.7869    0.0000 H       1  UNL1        0.0306
     21 H           6.8671   -0.5600    0.0000 H       1  UNL1        0.0306
     22 H           6.6401    0.2869    0.0000 H       1  UNL1        0.0306
@<TRIPOS>BOND
     1     1     6    2
     2     2     3    1
     3     2     5    1
     4     2     6    1
     5     2     9    1
     6     3     4    1
     7     3    10    1
     8     3    11    1
     9     4     7    1
    10     4    12    1
    11     4    13    1
    12     5    14    1
    13     5    15    1
    14     5    16    1
    15     6     8    1
    16     7    17    1
    17     7    18    1
    18     7    19    1
    19     8    20    1
    20     8    21    1
    21     8    22    1
