@<TRIPOS>MOLECULE
IMPHY017594
 40 41 0 0 0
SMALL
GASTEIGER

@<TRIPOS>ATOM
      1 O           2.0000    0.7327    0.0000 O.2     1  UNL1       -0.3004
      2 C           6.3301   -0.7673    0.0000 C.3     1  UNL1       -0.0253
      3 C           6.3301    0.2327    0.0000 C.3     1  UNL1       -0.0146
      4 C           7.2241    0.7674    0.0000 C.3     1  UNL1       -0.0371
      5 C           7.2241   -1.3020    0.0000 C.3     1  UNL1       -0.0471
      6 C           5.4641   -1.2673    0.0000 C.3     1  UNL1       -0.0434
      7 C           8.1301    0.2535    0.0000 C.3     1  UNL1       -0.0499
      8 C           8.1301   -0.7881    0.0000 C.3     1  UNL1       -0.0523
      9 C           5.4641    0.7327    0.0000 C.2     1  UNL1       -0.0803
     10 C           4.5981   -0.7673    0.0000 C.3     1  UNL1       -0.0306
     11 C           6.3301   -1.7673    0.0000 C.3     1  UNL1       -0.0590
     12 C           4.5981    0.2327    0.0000 C.2     1  UNL1       -0.0635
     13 C           7.2125    1.7673    0.0000 C.3     1  UNL1       -0.0619
     14 C           3.7320    0.7327    0.0000 C.3     1  UNL1        0.0327
     15 C           3.7320    1.7327    0.0000 C.3     1  UNL1       -0.0522
     16 C           2.8660    0.2327    0.0000 C.2     1  UNL1        0.1271
     17 H           6.3254    0.8527    0.0000 H       1  UNL1        0.0351
     18 H           7.7580    1.0825    0.0000 H       1  UNL1        0.0304
     19 H           6.8195   -1.7718    0.0000 H       1  UNL1        0.0271
     20 H           7.6177   -1.7810    0.0000 H       1  UNL1        0.0271
     21 H           5.0656   -1.7422    0.0000 H       1  UNL1        0.0274
     22 H           5.8626   -1.7422    0.0000 H       1  UNL1        0.0274
     23 H           8.7410    0.1474    0.0000 H       1  UNL1        0.0268
     24 H           8.3392    0.8372    0.0000 H       1  UNL1        0.0268
     25 H           8.3392   -1.3718    0.0000 H       1  UNL1        0.0266
     26 H           8.7410   -0.6820    0.0000 H       1  UNL1        0.0266
     27 H           5.4641    1.3527    0.0000 H       1  UNL1        0.0575
     28 H           3.9875   -0.6596    0.0000 H       1  UNL1        0.0310
     29 H           4.3860   -1.3499    0.0000 H       1  UNL1        0.0310
     30 H           5.7101   -1.7673    0.0000 H       1  UNL1        0.0235
     31 H           6.3301   -2.3873    0.0000 H       1  UNL1        0.0235
     32 H           6.9501   -1.7673    0.0000 H       1  UNL1        0.0235
     33 H           7.8325    1.7745    0.0000 H       1  UNL1        0.0233
     34 H           7.2053    2.3873    0.0000 H       1  UNL1        0.0233
     35 H           6.5926    1.7601    0.0000 H       1  UNL1        0.0233
     36 H           3.7320    0.1127    0.0000 H       1  UNL1        0.0417
     37 H           4.3520    1.7327    0.0000 H       1  UNL1        0.0239
     38 H           3.7320    2.3527    0.0000 H       1  UNL1        0.0239
     39 H           3.1120    1.7327    0.0000 H       1  UNL1        0.0239
     40 H           2.8660   -0.3873    0.0000 H       1  UNL1        0.1032
@<TRIPOS>BOND
     1     1    16    2
     2     2     3    1
     3     2     5    1
     4     2     6    1
     5     2    11    1
     6     3     4    1
     7     3     9    1
     8     3    17    1
     9     4     7    1
    10     4    13    1
    11     4    18    1
    12     5     8    1
    13     5    19    1
    14     5    20    1
    15     6    10    1
    16     6    21    1
    17     6    22    1
    18     7     8    1
    19     7    23    1
    20     7    24    1
    21     8    25    1
    22     8    26    1
    23     9    12    2
    24     9    27    1
    25    10    12    1
    26    10    28    1
    27    10    29    1
    28    11    30    1
    29    11    31    1
    30    11    32    1
    31    12    14    1
    32    13    33    1
    33    13    34    1
    34    13    35    1
    35    14    15    1
    36    14    16    1
    37    14    36    1
    38    15    37    1
    39    15    38    1
    40    15    39    1
    41    16    40    1
