@<TRIPOS>MOLECULE
IMPHY012897
 46 47 0 0 0
SMALL
GASTEIGER

@<TRIPOS>ATOM
      1 O           5.4641   -3.0000    0.0000 O.3     1  UNL1       -0.4947
      2 O           3.7320   -0.0000    0.0000 O.3     1  UNL1       -0.5057
      3 O           4.5981    1.5000    0.0000 O.2     1  UNL1       -0.2872
      4 C           4.5981   -1.5000    0.0000 C.ar    1  UNL1        0.0400
      5 C           3.7320   -2.0000    0.0000 C.3     1  UNL1       -0.0023
      6 C           4.5981   -0.5000    0.0000 C.ar    1  UNL1        0.1346
      7 C           5.4641   -2.0000    0.0000 C.ar    1  UNL1        0.1271
      8 C           5.4641   -0.0000    0.0000 C.ar    1  UNL1        0.0635
      9 C           3.7320   -3.0000    0.0000 C.2     1  UNL1       -0.0807
     10 C           6.3301   -1.5000    0.0000 C.ar    1  UNL1       -0.0188
     11 C           6.3301   -0.5000    0.0000 C.ar    1  UNL1       -0.0439
     12 C           2.8660   -3.5000    0.0000 C.2     1  UNL1       -0.0793
     13 C           5.4641    1.0000    0.0000 C.2     1  UNL1        0.1896
     14 C           2.8660   -4.5000    0.0000 C.3     1  UNL1       -0.0440
     15 C           2.0000   -3.0000    0.0000 C.3     1  UNL1       -0.0440
     16 C           6.3301    1.5000    0.0000 C.2     1  UNL1       -0.0137
     17 C           6.3301    2.5000    0.0000 C.2     1  UNL1       -0.0510
     18 C           7.1962    3.0000    0.0000 C.ar    1  UNL1       -0.0249
     19 C           6.3301   -3.5000    0.0000 C.3     1  UNL1        0.0788
     20 C           8.0622    2.5000    0.0000 C.ar    1  UNL1       -0.0546
     21 C           7.1962    4.0000    0.0000 C.ar    1  UNL1       -0.0546
     22 C           8.9282    3.0000    0.0000 C.ar    1  UNL1       -0.0612
     23 C           8.0622    4.5000    0.0000 C.ar    1  UNL1       -0.0612
     24 C           8.9282    4.0000    0.0000 C.ar    1  UNL1       -0.0617
     25 H           3.5200   -1.4174    0.0000 H       1  UNL1        0.0358
     26 H           3.1215   -2.1077    0.0000 H       1  UNL1        0.0358
     27 H           4.2690   -3.3100    0.0000 H       1  UNL1        0.0575
     28 H           6.8671   -1.8100    0.0000 H       1  UNL1        0.0654
     29 H           6.8671   -0.1900    0.0000 H       1  UNL1        0.0627
     30 H           2.2460   -4.5000    0.0000 H       1  UNL1        0.0274
     31 H           2.8660   -5.1200    0.0000 H       1  UNL1        0.0274
     32 H           3.4860   -4.5000    0.0000 H       1  UNL1        0.0274
     33 H           2.3100   -2.4631    0.0000 H       1  UNL1        0.0274
     34 H           1.4631   -2.6900    0.0000 H       1  UNL1        0.0274
     35 H           1.6900   -3.5369    0.0000 H       1  UNL1        0.0274
     36 H           6.8671    1.1900    0.0000 H       1  UNL1        0.0656
     37 H           3.1951   -0.3100    0.0000 H       1  UNL1        0.2922
     38 H           5.7932    2.8100    0.0000 H       1  UNL1        0.0625
     39 H           6.0201   -4.0369    0.0000 H       1  UNL1        0.0660
     40 H           6.8671   -3.8100    0.0000 H       1  UNL1        0.0660
     41 H           6.6401   -2.9631    0.0000 H       1  UNL1        0.0660
     42 H           8.0622    1.8800    0.0000 H       1  UNL1        0.0623
     43 H           6.6592    4.3100    0.0000 H       1  UNL1        0.0623
     44 H           9.4651    2.6900    0.0000 H       1  UNL1        0.0618
     45 H           8.0622    5.1200    0.0000 H       1  UNL1        0.0618
     46 H           9.4651    4.3100    0.0000 H       1  UNL1        0.0618
@<TRIPOS>BOND
     1     1     7    1
     2     1    19    1
     3     2     6    1
     4     2    37    1
     5     3    13    2
     6     4     5    1
     7     4     6   ar
     8     4     7   ar
     9     5     9    1
    10     5    25    1
    11     5    26    1
    12     6     8   ar
    13     7    10   ar
    14     8    11   ar
    15     8    13    1
    16     9    12    2
    17     9    27    1
    18    10    11   ar
    19    10    28    1
    20    11    29    1
    21    12    14    1
    22    12    15    1
    23    13    16    1
    24    14    30    1
    25    14    31    1
    26    14    32    1
    27    15    33    1
    28    15    34    1
    29    15    35    1
    30    16    17    2
    31    16    36    1
    32    17    18    1
    33    17    38    1
    34    18    20   ar
    35    18    21   ar
    36    19    39    1
    37    19    40    1
    38    19    41    1
    39    20    22   ar
    40    20    42    1
    41    21    23   ar
    42    21    43    1
    43    22    24   ar
    44    22    44    1
    45    23    24   ar
    46    23    45    1
    47    24    46    1
