@<TRIPOS>MOLECULE
IMPHY007561
 195 204 0 0 0
SMALL
GASTEIGER

@<TRIPOS>ATOM
      1 O           6.8671   -5.3672    0.0000 O.3     1  UNL1       -0.3448
      2 O           8.6424    3.9872    0.0000 O.3     1  UNL1       -0.3423
      3 O           6.8270    5.0261    0.0000 O.3     1  UNL1       -0.3887
      4 O           9.3112   -4.6756    0.0000 O.3     1  UNL1       -0.3944
      5 O           5.1350   -5.3672    0.0000 O.3     1  UNL1       -0.3315
      6 O           7.7764    5.4873    0.0000 O.3     1  UNL1       -0.3461
      7 O           6.8671   -7.3672    0.0000 O.3     1  UNL1       -0.3377
      8 O          10.3745    4.9873    0.0000 O.3     1  UNL1       -0.3841
      9 O           5.1350   -8.3672    0.0000 O.3     1  UNL1       -0.3864
     10 O          10.3745    6.9872    0.0000 O.3     1  UNL1       -0.3391
     11 O           3.4030   -7.3672    0.0000 O.3     1  UNL1       -0.3860
     12 O           8.6424    7.9872    0.0000 O.3     1  UNL1       -0.3868
     13 O           6.0010   -8.8672    0.0000 O.3     1  UNL1       -0.3405
     14 O           2.5369   -5.8672    0.0000 O.3     1  UNL1       -0.4788
     15 O           3.4030   -4.3672    0.0000 O.2     1  UNL1       -0.2480
     16 O           8.5991   -8.3672    0.0000 O.3     1  UNL1       -0.3378
     17 O           9.5085    8.4872    0.0000 O.3     1  UNL1       -0.3440
     18 O           8.5991  -10.3673    0.0000 O.3     1  UNL1       -0.3864
     19 O          12.1066    7.9872    0.0000 O.3     1  UNL1       -0.4525
     20 O           6.8671  -11.3673    0.0000 O.3     1  UNL1       -0.3865
     21 O          12.1066    9.9872    0.0000 O.3     1  UNL1       -0.4537
     22 O           9.4651   -9.8672    0.0000 O.3     1  UNL1       -0.3405
     23 O          10.3745   10.9873    0.0000 O.3     1  UNL1       -0.4553
     24 O           5.1350  -11.3673    0.0000 O.3     1  UNL1       -0.3924
     25 O          10.3312   -7.3672    0.0000 O.3     1  UNL1       -0.3841
     26 O          12.0632   -8.3672    0.0000 O.3     1  UNL1       -0.3864
     27 O          12.9726    9.4872    0.0000 O.2     1  UNL1       -0.2512
     28 O          12.0632  -10.3673    0.0000 O.3     1  UNL1       -0.3865
     29 O          11.2405   11.4873    0.0000 O.2     1  UNL1       -0.2512
     30 O           8.6424   10.9873    0.0000 O.2     1  UNL1       -0.2512
     31 O          11.1972  -11.8673    0.0000 O.3     1  UNL1       -0.3924
     32 C           7.7681   -0.6670    0.0000 C.3     1  UNL1       -0.0194
     33 C           6.9040   -1.1704    0.0000 C.3     1  UNL1       -0.0257
     34 C           6.8920   -2.2119    0.0000 C.3     1  UNL1       -0.0249
     35 C           7.7643    0.3330    0.0000 C.3     1  UNL1       -0.0051
     36 C           7.7920   -2.7362    0.0000 C.3     1  UNL1       -0.0255
     37 C           8.6801   -1.1704    0.0000 C.3     1  UNL1       -0.0463
     38 C           6.8963    0.8296    0.0000 C.2     1  UNL1       -0.0633
     39 C           6.8762    1.8711    0.0000 C.3     1  UNL1       -0.0110
     40 C           8.6921   -2.2119    0.0000 C.3     1  UNL1       -0.0485
     41 C           7.8046   -3.8211    0.0000 C.3     1  UNL1        0.0206
     42 C           7.7722    2.4023    0.0000 C.3     1  UNL1        0.0033
     43 C           8.6723    0.8433    0.0000 C.3     1  UNL1       -0.0428
     44 C           6.0361   -0.6737    0.0000 C.3     1  UNL1       -0.0306
     45 C           5.9421   -2.7362    0.0000 C.3     1  UNL1       -0.0447
     46 C           8.6763    1.8849    0.0000 C.3     1  UNL1       -0.0438
     47 C           8.7522   -0.4896    0.0000 C.3     1  UNL1       -0.0585
     48 C           6.8671   -4.3672    0.0000 C.3     1  UNL1        0.0695
     49 C           6.0322    0.3263    0.0000 C.2     1  UNL1       -0.0836
     50 C           6.0279   -1.7086    0.0000 C.3     1  UNL1       -0.0590
     51 C           5.9295   -3.8211    0.0000 C.3     1  UNL1       -0.0254
     52 C           8.7497    0.1631    0.0000 C.3     1  UNL1       -0.0553
     53 C           5.9223    2.3880    0.0000 C.3     1  UNL1       -0.0383
     54 C           7.7764    3.4872    0.0000 C.3     1  UNL1        0.0940
     55 C           5.9014    3.4728    0.0000 C.3     1  UNL1       -0.0059
     56 C           6.8347    4.0261    0.0000 C.3     1  UNL1        0.0870
     57 C           8.8046   -3.8134    0.0000 C.3     1  UNL1        0.0522
     58 C           8.3113   -4.6833    0.0000 C.3     1  UNL1       -0.0548
     59 C           8.6324    2.9122    0.0000 C.3     1  UNL1       -0.0566
     60 C           4.9015    3.4574    0.0000 C.3     1  UNL1       -0.0574
     61 C           5.3881    4.3310    0.0000 C.3     1  UNL1       -0.0574
     62 C           6.0010   -5.8672    0.0000 C.3     1  UNL1        0.1892
     63 C           8.6424    4.9873    0.0000 C.3     1  UNL1        0.1879
     64 C           6.0010   -6.8672    0.0000 C.3     1  UNL1        0.1407
     65 C           9.5085    5.4873    0.0000 C.3     1  UNL1        0.1345
     66 C           5.1350   -7.3672    0.0000 C.3     1  UNL1        0.1149
     67 C           9.5085    6.4873    0.0000 C.3     1  UNL1        0.1203
     68 C           4.2690   -5.8672    0.0000 C.3     1  UNL1        0.1859
     69 C           4.2690   -6.8672    0.0000 C.3     1  UNL1        0.1202
     70 C           7.7764    6.4873    0.0000 C.3     1  UNL1        0.0792
     71 C           8.6424    6.9872    0.0000 C.3     1  UNL1        0.1073
     72 C           6.8671   -8.3672    0.0000 C.3     1  UNL1        0.1889
     73 C           3.4030   -5.3672    0.0000 C.2     1  UNL1        0.3367
     74 C           7.7331   -8.8672    0.0000 C.3     1  UNL1        0.1406
     75 C          10.3745    7.9872    0.0000 C.3     1  UNL1        0.2005
     76 C           7.7331   -9.8672    0.0000 C.3     1  UNL1        0.1144
     77 C           6.0010   -9.8672    0.0000 C.3     1  UNL1        0.1130
     78 C          11.2405    8.4872    0.0000 C.3     1  UNL1        0.1936
     79 C           6.8671  -10.3673    0.0000 C.3     1  UNL1        0.1119
     80 C          11.2405    9.4872    0.0000 C.3     1  UNL1        0.1832
     81 C           9.5085    9.4872    0.0000 C.3     1  UNL1        0.0914
     82 C           5.1350  -10.3673    0.0000 C.3     1  UNL1        0.0730
     83 C          10.3745    9.9872    0.0000 C.3     1  UNL1        0.1666
     84 C           9.4651   -8.8672    0.0000 C.3     1  UNL1        0.1885
     85 C          10.3312   -8.3672    0.0000 C.3     1  UNL1        0.1341
     86 C          11.1972   -8.8672    0.0000 C.3     1  UNL1        0.1141
     87 C          12.9726    8.4872    0.0000 C.2     1  UNL1        0.3045
     88 C          10.3312  -10.3673    0.0000 C.3     1  UNL1        0.1130
     89 C          11.1972   -9.8672    0.0000 C.3     1  UNL1        0.1119
     90 C          12.1066   10.9873    0.0000 C.2     1  UNL1        0.3044
     91 C           9.5085   11.4873    0.0000 C.2     1  UNL1        0.3044
     92 C          13.8386    7.9872    0.0000 C.3     1  UNL1        0.0332
     93 C          10.3312  -11.3673    0.0000 C.3     1  UNL1        0.0730
     94 C          12.9726   11.4873    0.0000 C.3     1  UNL1        0.0332
     95 C           9.5085   12.4873    0.0000 C.3     1  UNL1        0.0332
     96 H           7.4398   -1.4824    0.0000 H       1  UNL1        0.0315
     97 H           8.3314   -3.0421    0.0000 H       1  UNL1        0.0313
     98 H           9.2921   -1.2694    0.0000 H       1  UNL1        0.0271
     99 H           8.8824   -0.5843    0.0000 H       1  UNL1        0.0271
    100 H           6.3466    1.5487    0.0000 H       1  UNL1        0.0352
    101 H           8.9079   -2.7932    0.0000 H       1  UNL1        0.0268
    102 H           9.3017   -2.0988    0.0000 H       1  UNL1        0.0268
    103 H           8.8791    0.2588    0.0000 H       1  UNL1        0.0274
    104 H           9.2836    0.9470    0.0000 H       1  UNL1        0.0274
    105 H           5.4251   -0.5684    0.0000 H       1  UNL1        0.0310
    106 H           5.8263   -1.2571    0.0000 H       1  UNL1        0.0310
    107 H           5.7398   -2.1502    0.0000 H       1  UNL1        0.0271
    108 H           5.3300   -2.8352    0.0000 H       1  UNL1        0.0271
    109 H           9.2868    1.7765    0.0000 H       1  UNL1        0.0272
    110 H           8.8876    2.4678    0.0000 H       1  UNL1        0.0272
    111 H           8.8623   -1.0998    0.0000 H       1  UNL1        0.0235
    112 H           9.3624   -0.3796    0.0000 H       1  UNL1        0.0235
    113 H           8.6422    0.1206    0.0000 H       1  UNL1        0.0235
    114 H           7.4046   -4.6762    0.0000 H       1  UNL1        0.0603
    115 H           5.4941    0.6342    0.0000 H       1  UNL1        0.0572
    116 H           6.3400   -1.1729    0.0000 H       1  UNL1        0.0235
    117 H           5.4922   -1.3965    0.0000 H       1  UNL1        0.0235
    118 H           5.7158   -2.2443    0.0000 H       1  UNL1        0.0235
    119 H           5.3199   -3.7080    0.0000 H       1  UNL1        0.0290
    120 H           5.7137   -4.4024    0.0000 H       1  UNL1        0.0290
    121 H           8.6444   -0.4479    0.0000 H       1  UNL1        0.0238
    122 H           9.3607    0.0578    0.0000 H       1  UNL1        0.0238
    123 H           8.8550    0.7741    0.0000 H       1  UNL1        0.0238
    124 H           5.3095    2.4823    0.0000 H       1  UNL1        0.0277
    125 H           5.7246    1.8004    0.0000 H       1  UNL1        0.0277
    126 H           8.3128    3.1762    0.0000 H       1  UNL1        0.0629
    127 H           7.3698    4.3392    0.0000 H       1  UNL1        0.0625
    128 H           9.3855   -3.5969    0.0000 H       1  UNL1        0.0563
    129 H           8.6922   -3.2037    0.0000 H       1  UNL1        0.0563
    130 H           7.7767   -4.9974    0.0000 H       1  UNL1        0.0237
    131 H           8.6254   -5.2178    0.0000 H       1  UNL1        0.0237
    132 H           8.8458   -4.3692    0.0000 H       1  UNL1        0.0237
    133 H           8.9486    2.3789    0.0000 H       1  UNL1        0.0236
    134 H           9.1657    3.2284    0.0000 H       1  UNL1        0.0236
    135 H           8.3162    3.4456    0.0000 H       1  UNL1        0.0236
    136 H           4.8920    4.0773    0.0000 H       1  UNL1        0.0236
    137 H           4.2816    3.4478    0.0000 H       1  UNL1        0.0236
    138 H           4.9111    2.8375    0.0000 H       1  UNL1        0.0236
    139 H           5.9202    4.6492    0.0000 H       1  UNL1        0.0236
    140 H           5.0699    4.8631    0.0000 H       1  UNL1        0.0236
    141 H           4.8560    4.0128    0.0000 H       1  UNL1        0.0236
    142 H           6.2877    5.3320    0.0000 H       1  UNL1        0.2099
    143 H           6.0010   -5.2472    0.0000 H       1  UNL1        0.0938
    144 H           9.9312   -4.6708    0.0000 H       1  UNL1        0.2094
    145 H           8.1055    4.6772    0.0000 H       1  UNL1        0.0937
    146 H           6.0010   -7.4872    0.0000 H       1  UNL1        0.0675
    147 H          10.0454    5.7972    0.0000 H       1  UNL1        0.0671
    148 H           4.5981   -7.6772    0.0000 H       1  UNL1        0.0648
    149 H           9.5085    7.1072    0.0000 H       1  UNL1        0.0651
    150 H           4.2690   -5.2472    0.0000 H       1  UNL1        0.0741
    151 H           3.7320   -6.5572    0.0000 H       1  UNL1        0.0652
    152 H           7.5644    7.0699    0.0000 H       1  UNL1        0.0587
    153 H           7.1658    6.3796    0.0000 H       1  UNL1        0.0587
    154 H           8.1055    7.2972    0.0000 H       1  UNL1        0.0643
    155 H          10.9114    5.2972    0.0000 H       1  UNL1        0.2101
    156 H           7.4040   -8.0572    0.0000 H       1  UNL1        0.0938
    157 H           4.5981   -8.6773    0.0000 H       1  UNL1        0.2100
    158 H           3.4030   -7.9872    0.0000 H       1  UNL1        0.2100
    159 H           8.1055    8.2972    0.0000 H       1  UNL1        0.2100
    160 H           8.2700   -9.1773    0.0000 H       1  UNL1        0.0675
    161 H           9.8376    7.6772    0.0000 H       1  UNL1        0.0950
    162 H           7.7331  -10.4873    0.0000 H       1  UNL1        0.0648
    163 H           5.4641   -9.5572    0.0000 H       1  UNL1        0.0647
    164 H          11.7775    8.7972    0.0000 H       1  UNL1        0.0825
    165 H           2.0000   -5.5572    0.0000 H       1  UNL1        0.2951
    166 H           6.3301  -10.6773    0.0000 H       1  UNL1        0.0647
    167 H          11.2405   10.1073    0.0000 H       1  UNL1        0.0812
    168 H           9.2964   10.0699    0.0000 H       1  UNL1        0.0599
    169 H           8.8979    9.3796    0.0000 H       1  UNL1        0.0599
    170 H           4.9230   -9.7846    0.0000 H       1  UNL1        0.0584
    171 H           4.5244  -10.4749    0.0000 H       1  UNL1        0.0584
    172 H           9.8376   10.2973    0.0000 H       1  UNL1        0.0796
    173 H           9.4651   -8.2472    0.0000 H       1  UNL1        0.0938
    174 H           8.5991  -10.9873    0.0000 H       1  UNL1        0.2100
    175 H           7.4040  -11.6773    0.0000 H       1  UNL1        0.2100
    176 H          10.8681   -8.0572    0.0000 H       1  UNL1        0.0671
    177 H           4.5981  -11.6773    0.0000 H       1  UNL1        0.2095
    178 H          11.7341   -9.1773    0.0000 H       1  UNL1        0.0648
    179 H           9.7942  -10.6773    0.0000 H       1  UNL1        0.0647
    180 H          11.1972  -10.4873    0.0000 H       1  UNL1        0.0647
    181 H          10.8681   -7.0572    0.0000 H       1  UNL1        0.2101
    182 H          13.5286    7.4503    0.0000 H       1  UNL1        0.0342
    183 H          14.3755    7.6772    0.0000 H       1  UNL1        0.0342
    184 H          14.1486    8.5242    0.0000 H       1  UNL1        0.0342
    185 H           9.7206  -11.2596    0.0000 H       1  UNL1        0.0584
    186 H          10.1191  -11.9499    0.0000 H       1  UNL1        0.0584
    187 H          12.6002   -8.6773    0.0000 H       1  UNL1        0.2100
    188 H          13.2826   10.9503    0.0000 H       1  UNL1        0.0342
    189 H          13.5095   11.7973    0.0000 H       1  UNL1        0.0342
    190 H          12.6626   12.0242    0.0000 H       1  UNL1        0.0342
    191 H          12.6002  -10.0573    0.0000 H       1  UNL1        0.2100
    192 H          10.1285   12.4873    0.0000 H       1  UNL1        0.0342
    193 H           9.5085   13.1073    0.0000 H       1  UNL1        0.0342
    194 H           8.8885   12.4873    0.0000 H       1  UNL1        0.0342
    195 H          11.1972  -12.4873    0.0000 H       1  UNL1        0.2095
@<TRIPOS>BOND
     1     1    48    1
     2     1    62    1
     3     2    54    1
     4     2    63    1
     5     3    56    1
     6     3   142    1
     7     4    57    1
     8     4   144    1
     9     5    62    1
    10     5    68    1
    11     6    63    1
    12     6    70    1
    13     7    64    1
    14     7    72    1
    15     8    65    1
    16     8   155    1
    17     9    66    1
    18     9   157    1
    19    10    67    1
    20    10    75    1
    21    11    69    1
    22    11   158    1
    23    12    71    1
    24    12   159    1
    25    13    72    1
    26    13    77    1
    27    14    73    1
    28    14   165    1
    29    15    73    2
    30    16    74    1
    31    16    84    1
    32    17    75    1
    33    17    81    1
    34    18    76    1
    35    18   174    1
    36    19    78    1
    37    19    87    1
    38    20    79    1
    39    20   175    1
    40    21    80    1
    41    21    90    1
    42    22    84    1
    43    22    88    1
    44    23    83    1
    45    23    91    1
    46    24    82    1
    47    24   177    1
    48    25    85    1
    49    25   181    1
    50    26    86    1
    51    26   187    1
    52    27    87    2
    53    28    89    1
    54    28   191    1
    55    29    90    2
    56    30    91    2
    57    31    93    1
    58    31   195    1
    59    32    33    1
    60    32    35    1
    61    32    37    1
    62    32    47    1
    63    33    34    1
    64    33    44    1
    65    33    96    1
    66    34    36    1
    67    34    45    1
    68    34    50    1
    69    35    38    1
    70    35    43    1
    71    35    52    1
    72    36    40    1
    73    36    41    1
    74    36    97    1
    75    37    40    1
    76    37    98    1
    77    37    99    1
    78    38    39    1
    79    38    49    2
    80    39    42    1
    81    39    53    1
    82    39   100    1
    83    40   101    1
    84    40   102    1
    85    41    48    1
    86    41    57    1
    87    41    58    1
    88    42    46    1
    89    42    54    1
    90    42    59    1
    91    43    46    1
    92    43   103    1
    93    43   104    1
    94    44    49    1
    95    44   105    1
    96    44   106    1
    97    45    51    1
    98    45   107    1
    99    45   108    1
   100    46   109    1
   101    46   110    1
   102    47   111    1
   103    47   112    1
   104    47   113    1
   105    48    51    1
   106    48   114    1
   107    49   115    1
   108    50   116    1
   109    50   117    1
   110    50   118    1
   111    51   119    1
   112    51   120    1
   113    52   121    1
   114    52   122    1
   115    52   123    1
   116    53    55    1
   117    53   124    1
   118    53   125    1
   119    54    56    1
   120    54   126    1
   121    55    56    1
   122    55    60    1
   123    55    61    1
   124    56   127    1
   125    57   128    1
   126    57   129    1
   127    58   130    1
   128    58   131    1
   129    58   132    1
   130    59   133    1
   131    59   134    1
   132    59   135    1
   133    60   136    1
   134    60   137    1
   135    60   138    1
   136    61   139    1
   137    61   140    1
   138    61   141    1
   139    62    64    1
   140    62   143    1
   141    63    65    1
   142    63   145    1
   143    64    66    1
   144    64   146    1
   145    65    67    1
   146    65   147    1
   147    66    69    1
   148    66   148    1
   149    67    71    1
   150    67   149    1
   151    68    69    1
   152    68    73    1
   153    68   150    1
   154    69   151    1
   155    70    71    1
   156    70   152    1
   157    70   153    1
   158    71   154    1
   159    72    74    1
   160    72   156    1
   161    74    76    1
   162    74   160    1
   163    75    78    1
   164    75   161    1
   165    76    79    1
   166    76   162    1
   167    77    79    1
   168    77    82    1
   169    77   163    1
   170    78    80    1
   171    78   164    1
   172    79   166    1
   173    80    83    1
   174    80   167    1
   175    81    83    1
   176    81   168    1
   177    81   169    1
   178    82   170    1
   179    82   171    1
   180    83   172    1
   181    84    85    1
   182    84   173    1
   183    85    86    1
   184    85   176    1
   185    86    89    1
   186    86   178    1
   187    87    92    1
   188    88    89    1
   189    88    93    1
   190    88   179    1
   191    89   180    1
   192    90    94    1
   193    91    95    1
   194    92   182    1
   195    92   183    1
   196    92   184    1
   197    93   185    1
   198    93   186    1
   199    94   188    1
   200    94   189    1
   201    94   190    1
   202    95   192    1
   203    95   193    1
   204    95   194    1
