@<TRIPOS>MOLECULE
IMPHY015517
 41 43 0 0 0
SMALL
GASTEIGER

@<TRIPOS>ATOM
      1 O           4.8376   -0.8177    0.0000 O.3     1  UNL1       -0.4573
      2 O           3.2678   -0.0857    0.0000 O.2     1  UNL1       -0.2450
      3 C           6.6330    0.6807    0.0000 C.3     1  UNL1        0.0104
      4 C           6.1552    2.6292    0.0000 C.3     1  UNL1       -0.0232
      5 C           6.8918    1.6466    0.0000 C.3     1  UNL1       -0.0319
      6 C           5.2602    0.0887    0.0000 C.3     1  UNL1        0.1095
      7 C           8.0319    0.1719    0.0000 C.3     1  UNL1       -0.0435
      8 C           4.9182    1.0283    0.0000 C.3     1  UNL1       -0.0118
      9 C           8.2907    1.1378    0.0000 C.3     1  UNL1       -0.0490
     10 C           6.3741   -0.2853    0.0000 C.3     1  UNL1       -0.0557
     11 C           6.2597    3.6237    0.0000 C.3     1  UNL1       -0.0589
     12 C           5.2416    3.0360    0.0000 C.3     1  UNL1       -0.0589
     13 C           3.8414   -0.9048    0.0000 C.2     1  UNL1        0.3395
     14 C           3.4188   -1.8111    0.0000 C.ar    1  UNL1        0.0590
     15 C           2.4226   -1.8983    0.0000 C.ar    1  UNL1       -0.0478
     16 C           3.9924   -2.6303    0.0000 C.ar    1  UNL1       -0.0478
     17 C           2.0000   -2.8046    0.0000 C.ar    1  UNL1       -0.0610
     18 C           3.5698   -3.5366    0.0000 C.ar    1  UNL1       -0.0610
     19 C           2.5736   -3.6237    0.0000 C.ar    1  UNL1       -0.0617
     20 H           6.8777    1.0268    0.0000 H       1  UNL1        0.0307
     21 H           5.6922   -0.3561    0.0000 H       1  UNL1        0.0740
     22 H           7.8370   -0.4167    0.0000 H       1  UNL1        0.0272
     23 H           8.6258   -0.0059    0.0000 H       1  UNL1        0.0272
     24 H           4.7239    1.6171    0.0000 H       1  UNL1        0.0304
     25 H           4.3325    0.8251    0.0000 H       1  UNL1        0.0304
     26 H           8.8847    0.9600    0.0000 H       1  UNL1        0.0268
     27 H           8.4856    1.7263    0.0000 H       1  UNL1        0.0268
     28 H           5.7753   -0.1248    0.0000 H       1  UNL1        0.0236
     29 H           6.2137   -0.8841    0.0000 H       1  UNL1        0.0236
     30 H           6.9730   -0.4457    0.0000 H       1  UNL1        0.0236
     31 H           6.8763    3.5589    0.0000 H       1  UNL1        0.0235
     32 H           6.3245    4.2403    0.0000 H       1  UNL1        0.0235
     33 H           5.6431    3.6885    0.0000 H       1  UNL1        0.0235
     34 H           5.4938    3.6024    0.0000 H       1  UNL1        0.0235
     35 H           4.6752    3.2881    0.0000 H       1  UNL1        0.0235
     36 H           4.9894    2.4696    0.0000 H       1  UNL1        0.0235
     37 H           2.0670   -1.3904    0.0000 H       1  UNL1        0.0626
     38 H           4.6100   -2.5762    0.0000 H       1  UNL1        0.0626
     39 H           1.3824   -2.8586    0.0000 H       1  UNL1        0.0618
     40 H           3.9254   -4.0444    0.0000 H       1  UNL1        0.0618
     41 H           2.3116   -4.1856    0.0000 H       1  UNL1        0.0618
@<TRIPOS>BOND
     1     1     6    1
     2     1    13    1
     3     2    13    2
     4     3     4    1
     5     3     6    1
     6     3     7    1
     7     3    10    1
     8     4     5    1
     9     4    11    1
    10     4    12    1
    11     5     8    1
    12     5     9    1
    13     5    20    1
    14     6     8    1
    15     6    21    1
    16     7     9    1
    17     7    22    1
    18     7    23    1
    19     8    24    1
    20     8    25    1
    21     9    26    1
    22     9    27    1
    23    10    28    1
    24    10    29    1
    25    10    30    1
    26    11    31    1
    27    11    32    1
    28    11    33    1
    29    12    34    1
    30    12    35    1
    31    12    36    1
    32    13    14    1
    33    14    15   ar
    34    14    16   ar
    35    15    17   ar
    36    15    37    1
    37    16    18   ar
    38    16    38    1
    39    17    19   ar
    40    17    39    1
    41    18    19   ar
    42    18    40    1
    43    19    41    1
