@<TRIPOS>MOLECULE
IMPHY004772
 67 72 0 0 0
SMALL
GASTEIGER

@<TRIPOS>ATOM
      1 O           7.7404   -2.8351    0.0000 O.3     1  UNL1       -0.4814
      2 O           4.9603    0.3204    0.0000 O.2     1  UNL1       -0.4539
      3 O           5.8582   -4.2557    0.0000 O.3     1  UNL1       -0.5032
      4 O           4.1001   -1.1833    0.0000 O.3     1  UNL1       -0.5059
      5 O           7.6242    1.8450    0.0000 O.2     1  UNL1       -0.2866
      6 O           3.0087    3.5248    0.0000 O.3     1  UNL1       -0.4814
      7 O           6.7429    3.4576    0.0000 O.3     1  UNL1       -0.5052
      8 C           7.6024   -1.1865    0.0000 C.3     1  UNL1        0.0323
      9 C           8.2203   -1.9648    0.0000 C.3     1  UNL1        0.1155
     10 C           6.7364   -1.6865    0.0000 C.ar    1  UNL1        0.0193
     11 C           7.6024   -0.1865    0.0000 C.3     1  UNL1       -0.0099
     12 C           9.0756   -2.4830    0.0000 C.3     1  UNL1       -0.0091
     13 C           6.7524   -2.7280    0.0000 C.ar    1  UNL1        0.1670
     14 C           5.8703   -1.1865    0.0000 C.ar    1  UNL1        0.0663
     15 C           8.9774   -1.3116    0.0000 C.3     1  UNL1       -0.0243
     16 C           6.7364    0.3135    0.0000 C.ar    1  UNL1        0.0437
     17 C           5.8703   -0.1865    0.0000 C.ar    1  UNL1        0.1463
     18 C           9.0544   -3.4828    0.0000 C.3     1  UNL1       -0.0309
     19 C           5.8544   -3.2557    0.0000 C.ar    1  UNL1        0.1623
     20 C           4.9603   -1.6933    0.0000 C.ar    1  UNL1        0.1315
     21 C           6.7524    1.3550    0.0000 C.ar    1  UNL1        0.1998
     22 C           4.9523   -2.7349    0.0000 C.ar    1  UNL1        0.0257
     23 C           5.8544    1.8828    0.0000 C.ar    1  UNL1        0.1063
     24 C           4.9523    1.3620    0.0000 C.ar    1  UNL1        0.1463
     25 C           9.9096   -4.0010    0.0000 C.2     1  UNL1       -0.0852
     26 C           5.8711    2.9677    0.0000 C.ar    1  UNL1        0.1418
     27 C           4.0044    1.8899    0.0000 C.ar    1  UNL1        0.0240
     28 C           4.9357    3.5174    0.0000 C.ar    1  UNL1        0.0588
     29 C           3.9960    2.9749    0.0000 C.ar    1  UNL1        0.1359
     30 C           9.8885   -5.0008    0.0000 C.2     1  UNL1       -0.0796
     31 C           3.0000    4.6550    0.0000 C.3     1  UNL1        0.1235
     32 C           4.9531    4.6474    0.0000 C.2     1  UNL1       -0.0478
     33 C           3.9787    5.2200    0.0000 C.2     1  UNL1       -0.0408
     34 C          10.7437   -5.5190    0.0000 C.3     1  UNL1       -0.0440
     35 C           9.0120   -5.4824    0.0000 C.3     1  UNL1       -0.0440
     36 C           2.4967    5.5190    0.0000 C.3     1  UNL1       -0.0215
     37 C           2.0000    4.6511    0.0000 C.3     1  UNL1       -0.0215
     38 H           8.1878   -0.9823    0.0000 H       1  UNL1        0.0392
     39 H           8.2130   -0.2941    0.0000 H       1  UNL1        0.0323
     40 H           7.8144    0.3961    0.0000 H       1  UNL1        0.0323
     41 H           9.6837   -2.6036    0.0000 H       1  UNL1        0.0307
     42 H           9.2999   -1.9050    0.0000 H       1  UNL1        0.0307
     43 H           9.3825   -1.7810    0.0000 H       1  UNL1        0.0268
     44 H           9.4469   -0.9066    0.0000 H       1  UNL1        0.0268
     45 H           8.5724   -0.8421    0.0000 H       1  UNL1        0.0268
     46 H           8.4462   -3.3622    0.0000 H       1  UNL1        0.0309
     47 H           8.8300   -4.0608    0.0000 H       1  UNL1        0.0309
     48 H           4.4142   -3.0428    0.0000 H       1  UNL1        0.0692
     49 H          10.4530   -3.7025    0.0000 H       1  UNL1        0.0571
     50 H           3.4711    1.5737    0.0000 H       1  UNL1        0.0691
     51 H           5.3225   -4.5678    0.0000 H       1  UNL1        0.2923
     52 H           3.5597   -1.4871    0.0000 H       1  UNL1        0.2922
     53 H           5.4936    4.9512    0.0000 H       1  UNL1        0.0624
     54 H           3.9811    5.8400    0.0000 H       1  UNL1        0.0611
     55 H          10.4224   -6.0493    0.0000 H       1  UNL1        0.0274
     56 H           8.7135   -4.9390    0.0000 H       1  UNL1        0.0274
     57 H           8.4687   -5.7809    0.0000 H       1  UNL1        0.0274
     58 H           9.3106   -6.0258    0.0000 H       1  UNL1        0.0274
     59 H          11.2740   -5.8403    0.0000 H       1  UNL1        0.0274
     60 H          11.0650   -4.9888    0.0000 H       1  UNL1        0.0274
     61 H           6.7500    4.0776    0.0000 H       1  UNL1        0.2922
     62 H           3.0324    5.8311    0.0000 H       1  UNL1        0.0271
     63 H           2.1846    6.0548    0.0000 H       1  UNL1        0.0271
     64 H           1.9609    5.2070    0.0000 H       1  UNL1        0.0271
     65 H           1.9976    5.2711    0.0000 H       1  UNL1        0.0271
     66 H           1.3800    4.6487    0.0000 H       1  UNL1        0.0271
     67 H           2.0024    4.0311    0.0000 H       1  UNL1        0.0271
@<TRIPOS>BOND
     1     1     9    1
     2     1    13    1
     3     2    17   ar
     4     2    24   ar
     5     3    19    1
     6     3    51    1
     7     4    20    1
     8     4    52    1
     9     5    21    2
    10     6    29    1
    11     6    31    1
    12     7    26    1
    13     7    61    1
    14     8     9    1
    15     8    10    1
    16     8    11    1
    17     8    38    1
    18     9    12    1
    19     9    15    1
    20    10    13   ar
    21    10    14   ar
    22    11    16    1
    23    11    39    1
    24    11    40    1
    25    12    18    1
    26    12    41    1
    27    12    42    1
    28    13    19   ar
    29    14    17    1
    30    14    20   ar
    31    15    43    1
    32    15    44    1
    33    15    45    1
    34    16    17   ar
    35    16    21   ar
    36    18    25    1
    37    18    46    1
    38    18    47    1
    39    19    22   ar
    40    20    22   ar
    41    21    23   ar
    42    22    48    1
    43    23    24   ar
    44    23    26   ar
    45    24    27   ar
    46    25    30    2
    47    25    49    1
    48    26    28   ar
    49    27    29   ar
    50    27    50    1
    51    28    29   ar
    52    28    32    1
    53    30    34    1
    54    30    35    1
    55    31    33    1
    56    31    36    1
    57    31    37    1
    58    32    33    2
    59    32    53    1
    60    33    54    1
    61    34    55    1
    62    34    59    1
    63    34    60    1
    64    35    56    1
    65    35    57    1
    66    35    58    1
    67    36    62    1
    68    36    63    1
    69    36    64    1
    70    37    65    1
    71    37    66    1
    72    37    67    1
