@<TRIPOS>MOLECULE
IMPHY003028
 49 53 0 0 0
SMALL
GASTEIGER

@<TRIPOS>ATOM
      1 O           7.1377   -2.0536    0.0000 O.3     1  UNL1       -0.3577
      2 O           2.6079    0.6774    0.0000 O.3     1  UNL1       -0.4526
      3 O           2.6079    2.3539    0.0000 O.3     1  UNL1       -0.4526
      4 O          10.7866   -1.0367    0.0000 O.3     1  UNL1       -0.4914
      5 O          10.7705    1.0549    0.0000 O.3     1  UNL1       -0.4914
      6 N           6.2435   -0.5259    0.0000 N.pl3   1  UNL1       -0.3031
      7 C           6.2596    0.5156    0.0000 C.ar    1  UNL1        0.0473
      8 C           7.1415   -1.0536    0.0000 C.3     1  UNL1        0.1513
      9 C           7.1256    1.0156    0.0000 C.ar    1  UNL1        0.0043
     10 C           8.0436   -0.5328    0.0000 C.ar    1  UNL1        0.0107
     11 C           8.0356    0.5088    0.0000 C.ar    1  UNL1       -0.0052
     12 C           5.3935    1.0156    0.0000 C.ar    1  UNL1        0.0075
     13 C           5.3935    2.0156    0.0000 C.ar    1  UNL1       -0.0124
     14 C           7.1256    2.0156    0.0000 C.ar    1  UNL1       -0.0517
     15 C           8.9790   -1.0825    0.0000 C.ar    1  UNL1       -0.0085
     16 C           5.3717   -1.0158    0.0000 C.3     1  UNL1        0.0034
     17 C           8.9624    1.0729    0.0000 C.ar    1  UNL1       -0.0081
     18 C           6.2596    2.5156    0.0000 C.ar    1  UNL1       -0.0532
     19 C           4.4996    0.4810    0.0000 C.ar    1  UNL1       -0.0066
     20 C           4.4996    2.5503    0.0000 C.ar    1  UNL1       -0.0084
     21 C           3.5935    0.9948    0.0000 C.ar    1  UNL1        0.1669
     22 C           9.9187   -0.5400    0.0000 C.ar    1  UNL1        0.1619
     23 C           9.9103    0.5449    0.0000 C.ar    1  UNL1        0.1621
     24 C           3.5935    2.0364    0.0000 C.ar    1  UNL1        0.1668
     25 C           6.2697   -2.5503    0.0000 C.3     1  UNL1        0.0391
     26 C           2.0000    1.5156    0.0000 C.3     1  UNL1        0.2332
     27 C          10.7905   -2.0367    0.0000 C.3     1  UNL1        0.0790
     28 C          10.7589    2.0548    0.0000 C.3     1  UNL1        0.0790
     29 H           7.6779   -1.3647    0.0000 H       1  UNL1        0.0862
     30 H           7.6625    2.3256    0.0000 H       1  UNL1        0.0624
     31 H           8.9766   -1.7025    0.0000 H       1  UNL1        0.0660
     32 H           5.0680   -0.4754    0.0000 H       1  UNL1        0.0429
     33 H           4.8313   -1.3196    0.0000 H       1  UNL1        0.0429
     34 H           5.6755   -1.5563    0.0000 H       1  UNL1        0.0429
     35 H           8.9505    1.6928    0.0000 H       1  UNL1        0.0661
     36 H           6.2596    3.1356    0.0000 H       1  UNL1        0.0624
     37 H           4.5068   -0.1390    0.0000 H       1  UNL1        0.0662
     38 H           4.5068    3.1702    0.0000 H       1  UNL1        0.0661
     39 H           5.9618   -2.0122    0.0000 H       1  UNL1        0.0524
     40 H           5.7316   -2.8582    0.0000 H       1  UNL1        0.0524
     41 H           6.5777   -3.0884    0.0000 H       1  UNL1        0.0524
     42 H           1.5391    1.9304    0.0000 H       1  UNL1        0.1166
     43 H           1.5391    1.1009    0.0000 H       1  UNL1        0.1166
     44 H          10.1705   -2.0391    0.0000 H       1  UNL1        0.0660
     45 H          10.7929   -2.6567    0.0000 H       1  UNL1        0.0660
     46 H          11.4105   -2.0343    0.0000 H       1  UNL1        0.0660
     47 H          11.3789    2.0620    0.0000 H       1  UNL1        0.0660
     48 H          10.7518    2.6748    0.0000 H       1  UNL1        0.0660
     49 H          10.1390    2.0477    0.0000 H       1  UNL1        0.0660
@<TRIPOS>BOND
     1     1     8    1
     2     1    25    1
     3     2    21    1
     4     2    26    1
     5     3    24    1
     6     3    26    1
     7     4    22    1
     8     4    27    1
     9     5    23    1
    10     5    28    1
    11     6     7    1
    12     6     8    1
    13     6    16    1
    14     7     9   ar
    15     7    12   ar
    16     8    10    1
    17     8    29    1
    18     9    11    1
    19     9    14   ar
    20    10    11   ar
    21    10    15   ar
    22    11    17   ar
    23    12    13   ar
    24    12    19   ar
    25    13    18   ar
    26    13    20   ar
    27    14    18   ar
    28    14    30    1
    29    15    22   ar
    30    15    31    1
    31    16    32    1
    32    16    33    1
    33    16    34    1
    34    17    23   ar
    35    17    35    1
    36    18    36    1
    37    19    21   ar
    38    19    37    1
    39    20    24   ar
    40    20    38    1
    41    21    24   ar
    42    22    23   ar
    43    25    39    1
    44    25    40    1
    45    25    41    1
    46    26    42    1
    47    26    43    1
    48    27    44    1
    49    27    45    1
    50    27    46    1
    51    28    47    1
    52    28    48    1
    53    28    49    1
