@<TRIPOS>MOLECULE
IMPHY005512
 48 51 0 0 0
SMALL
GASTEIGER

@<TRIPOS>ATOM
      1 O           2.8641   -1.1034    0.0000 O.3     1  UNL1       -0.4603
      2 O           4.3226    1.8704    0.0000 O.3     1  UNL1       -0.4529
      3 O           3.1641   -0.2581    0.0000 O.3     1  UNL1       -0.3940
      4 O           7.2622   -0.6242    0.0000 O.2     1  UNL1       -0.5034
      5 O           7.2622   -2.6242    0.0000 O.2     1  UNL1       -0.2885
      6 O           2.0000   -2.6484    0.0000 O.2     1  UNL1       -0.2508
      7 O           4.0066    3.6242    0.0000 O.2     1  UNL1       -0.2456
      8 C           4.6641   -1.1242    0.0000 C.3     1  UNL1        0.0601
      9 C           5.1650    0.3001    0.0000 C.3     1  UNL1        0.0377
     10 C           3.7702   -0.5895    0.0000 C.3     1  UNL1        0.1157
     11 C           4.6641   -2.1242    0.0000 C.3     1  UNL1       -0.0063
     12 C           5.5301   -0.6242    0.0000 C.2     1  UNL1       -0.0027
     13 C           4.1714    0.3197    0.0000 C.3     1  UNL1       -0.0018
     14 C           5.5301   -2.6242    0.0000 C.3     1  UNL1        0.0267
     15 C           3.6641   -1.1241    0.0000 C.3     1  UNL1        0.0573
     16 C           5.1438    1.2999    0.0000 C.3     1  UNL1        0.1339
     17 C           3.7702   -2.6589    0.0000 C.3     1  UNL1        0.0494
     18 C           6.3961   -1.1242    0.0000 C.2     1  UNL1        0.1601
     19 C           6.1093    0.6292    0.0000 C.3     1  UNL1       -0.0519
     20 C           6.3961   -2.1242    0.0000 C.2     1  UNL1        0.2001
     21 C           2.8641   -2.1450    0.0000 C.2     1  UNL1        0.3077
     22 C           5.5301   -3.6242    0.0000 C.3     1  UNL1       -0.0550
     23 C           5.9402    1.9047    0.0000 C.2     1  UNL1       -0.0251
     24 C           5.6112    2.8490    0.0000 C.2     1  UNL1        0.0250
     25 C           4.6114    2.8278    0.0000 C.2     1  UNL1        0.3326
     26 C           6.8976    1.6159    0.0000 C.3     1  UNL1       -0.0398
     27 H           3.1397   -0.0194    0.0000 H       1  UNL1        0.0744
     28 H           4.6706   -2.9742    0.0000 H       1  UNL1        0.0323
     29 H           4.2650    0.9326    0.0000 H       1  UNL1        0.0311
     30 H           3.5762    0.4932    0.0000 H       1  UNL1        0.0311
     31 H           6.0671   -2.9342    0.0000 H       1  UNL1        0.0382
     32 H           3.0815   -1.3361    0.0000 H       1  UNL1        0.0567
     33 H           3.7717   -1.7347    0.0000 H       1  UNL1        0.0567
     34 H           4.3948    0.8981    0.0000 H       1  UNL1        0.0791
     35 H           3.3765   -3.1379    0.0000 H       1  UNL1        0.0381
     36 H           4.1748   -3.1286    0.0000 H       1  UNL1        0.0381
     37 H           6.3133    0.0437    0.0000 H       1  UNL1        0.0239
     38 H           6.6948    0.8332    0.0000 H       1  UNL1        0.0239
     39 H           5.9053    1.2147    0.0000 H       1  UNL1        0.0239
     40 H           4.9101   -3.6242    0.0000 H       1  UNL1        0.0237
     41 H           5.5301   -4.2442    0.0000 H       1  UNL1        0.0237
     42 H           6.1501   -3.6242    0.0000 H       1  UNL1        0.0237
     43 H           2.5441   -0.2581    0.0000 H       1  UNL1        0.2094
     44 H           7.7991   -0.9342    0.0000 H       1  UNL1        0.2923
     45 H           5.9649    3.3582    0.0000 H       1  UNL1        0.0689
     46 H           6.7186    1.0223    0.0000 H       1  UNL1        0.0276
     47 H           7.4912    1.4368    0.0000 H       1  UNL1        0.0276
     48 H           7.0767    2.2094    0.0000 H       1  UNL1        0.0276
@<TRIPOS>BOND
     1     1    10    1
     2     1    21    1
     3     2    16    1
     4     2    25    1
     5     3    15    1
     6     3    43    1
     7     4    18    1
     8     4    44    1
     9     5    20    2
    10     6    21    2
    11     7    25    2
    12     8    10    1
    13     8    11    1
    14     8    12    1
    15     8    15    1
    16     9    12    1
    17     9    13    1
    18     9    16    1
    19     9    19    1
    20    10    13    1
    21    10    27    1
    22    11    14    1
    23    11    17    1
    24    11    28    1
    25    12    18    2
    26    13    29    1
    27    13    30    1
    28    14    20    1
    29    14    22    1
    30    14    31    1
    31    15    32    1
    32    15    33    1
    33    16    23    1
    34    16    34    1
    35    17    21    1
    36    17    35    1
    37    17    36    1
    38    18    20    1
    39    19    37    1
    40    19    38    1
    41    19    39    1
    42    22    40    1
    43    22    41    1
    44    22    42    1
    45    23    24    2
    46    23    26    1
    47    24    25    1
    48    24    45    1
    49    26    46    1
    50    26    47    1
    51    26    48    1
