@<TRIPOS>MOLECULE
IMPHY005337
 46 48 0 0 0
SMALL
GASTEIGER

@<TRIPOS>ATOM
      1 O           2.5381   -2.0116    0.0000 O.3     1  UNL1       -0.3912
      2 O           7.8003   -1.9875    0.0000 O.2     1  UNL1       -0.2920
      3 O           6.9464    2.5818    0.0000 O.3     1  UNL1       -0.5033
      4 O           8.7202    1.5576    0.0000 O.3     1  UNL1       -0.4914
      5 C           5.2022   -1.4875    0.0000 C.3     1  UNL1       -0.0171
      6 C           5.2022   -0.4875    0.0000 C.3     1  UNL1       -0.0024
      7 C           4.3083   -2.0221    0.0000 C.3     1  UNL1       -0.0049
      8 C           4.3083    0.0472    0.0000 C.3     1  UNL1       -0.0410
      9 C           3.4022   -1.5083    0.0000 C.3     1  UNL1        0.0607
     10 C           3.4022   -0.4666    0.0000 C.3     1  UNL1       -0.0255
     11 C           6.0682   -1.9875    0.0000 C.3     1  UNL1        0.0147
     12 C           6.0682    0.0125    0.0000 C.ar    1  UNL1       -0.0270
     13 C           5.2022    0.5125    0.0000 C.3     1  UNL1       -0.0552
     14 C           3.8183   -2.8939    0.0000 C.3     1  UNL1       -0.0572
     15 C           4.8183   -2.8823    0.0000 C.3     1  UNL1       -0.0572
     16 C           6.9343   -0.4875    0.0000 C.ar    1  UNL1        0.0248
     17 C           6.9343   -1.4875    0.0000 C.2     1  UNL1        0.1639
     18 C           6.0522    1.0540    0.0000 C.ar    1  UNL1       -0.0121
     19 C           7.8443    0.0194    0.0000 C.ar    1  UNL1       -0.0056
     20 C           6.9502    1.5818    0.0000 C.ar    1  UNL1        0.1588
     21 C           7.8523    1.0610    0.0000 C.ar    1  UNL1        0.1619
     22 C           9.5844    1.0543    0.0000 C.3     1  UNL1        0.0790
     23 H           5.2088   -2.3374    0.0000 H       1  UNL1        0.0319
     24 H           4.7129    0.5170    0.0000 H       1  UNL1        0.0275
     25 H           3.9147    0.5262    0.0000 H       1  UNL1        0.0275
     26 H           3.4058   -2.1283    0.0000 H       1  UNL1        0.0599
     27 H           3.1932    0.1171    0.0000 H       1  UNL1        0.0290
     28 H           2.7914   -0.5727    0.0000 H       1  UNL1        0.0290
     29 H           5.6697   -2.4624    0.0000 H       1  UNL1        0.0348
     30 H           6.4668   -2.4624    0.0000 H       1  UNL1        0.0348
     31 H           5.8222    0.5125    0.0000 H       1  UNL1        0.0238
     32 H           5.2022    1.1325    0.0000 H       1  UNL1        0.0238
     33 H           4.5822    0.5125    0.0000 H       1  UNL1        0.0238
     34 H           3.2778   -2.5901    0.0000 H       1  UNL1        0.0236
     35 H           3.5146   -3.4344    0.0000 H       1  UNL1        0.0236
     36 H           4.3588   -3.1976    0.0000 H       1  UNL1        0.0236
     37 H           4.2850   -3.1985    0.0000 H       1  UNL1        0.0236
     38 H           5.1344   -3.4156    0.0000 H       1  UNL1        0.0236
     39 H           5.3516   -2.5661    0.0000 H       1  UNL1        0.0236
     40 H           5.5117    1.3578    0.0000 H       1  UNL1        0.0658
     41 H           2.0000   -1.7037    0.0000 H       1  UNL1        0.2098
     42 H           8.3776   -0.2968    0.0000 H       1  UNL1        0.0662
     43 H           7.4821    2.8939    0.0000 H       1  UNL1        0.2923
     44 H           9.2723    0.5186    0.0000 H       1  UNL1        0.0660
     45 H          10.1201    0.7422    0.0000 H       1  UNL1        0.0660
     46 H           9.8964    1.5900    0.0000 H       1  UNL1        0.0660
@<TRIPOS>BOND
     1     9     1    1
     2     1    41    1
     3     2    17    2
     4     3    20    1
     5     3    43    1
     6     4    21    1
     7     4    22    1
     8     5     6    1
     9     5     7    1
    10     5    11    1
    11     5    23    1
    12     6     8    1
    13     6    12    1
    14     6    13    1
    15     7     9    1
    16     7    14    1
    17     7    15    1
    18     8    10    1
    19     8    24    1
    20     8    25    1
    21     9    10    1
    22     9    26    1
    23    10    27    1
    24    10    28    1
    25    11    17    1
    26    11    29    1
    27    11    30    1
    28    12    16   ar
    29    12    18   ar
    30    13    31    1
    31    13    32    1
    32    13    33    1
    33    14    34    1
    34    14    35    1
    35    14    36    1
    36    15    37    1
    37    15    38    1
    38    15    39    1
    39    16    17    1
    40    16    19   ar
    41    18    20   ar
    42    18    40    1
    43    19    21   ar
    44    19    42    1
    45    20    21   ar
    46    22    44    1
    47    22    45    1
    48    22    46    1
