@<TRIPOS>MOLECULE
IMPHY004615
 35 36 0 0 0
SMALL
GASTEIGER

@<TRIPOS>ATOM
      1 O           2.8660   -0.9050    0.0000 O.3     1  UNL1       -0.4947
      2 O           4.5981   -3.9050    0.0000 O.3     1  UNL1       -0.5066
      3 O           8.9282    3.5950    0.0000 O.3     1  UNL1       -0.5068
      4 C           4.5981   -0.9050    0.0000 C.ar    1  UNL1       -0.0018
      5 C           4.5981    0.0950    0.0000 C.3     1  UNL1       -0.0057
      6 C           3.7320   -1.4050    0.0000 C.ar    1  UNL1        0.1270
      7 C           5.4641   -1.4050    0.0000 C.ar    1  UNL1       -0.0514
      8 C           5.4641    0.5950    0.0000 C.2     1  UNL1       -0.0790
      9 C           3.7320   -2.4050    0.0000 C.ar    1  UNL1        0.0218
     10 C           5.4641    1.5950    0.0000 C.2     1  UNL1       -0.0582
     11 C           6.3301    2.0950    0.0000 C.ar    1  UNL1       -0.0251
     12 C           5.4641   -2.4050    0.0000 C.ar    1  UNL1       -0.0197
     13 C           4.5981   -2.9050    0.0000 C.ar    1  UNL1        0.1203
     14 C           7.1962    1.5950    0.0000 C.ar    1  UNL1       -0.0512
     15 C           6.3301    3.0950    0.0000 C.ar    1  UNL1       -0.0512
     16 C           8.0622    2.0950    0.0000 C.ar    1  UNL1       -0.0196
     17 C           7.1962    3.5950    0.0000 C.ar    1  UNL1       -0.0196
     18 C           8.0622    3.0950    0.0000 C.ar    1  UNL1        0.1169
     19 C           2.0000   -1.4050    0.0000 C.3     1  UNL1        0.0788
     20 H           4.3860    0.6776    0.0000 H       1  UNL1        0.0357
     21 H           3.9875   -0.0127    0.0000 H       1  UNL1        0.0357
     22 H           6.0010   -1.0950    0.0000 H       1  UNL1        0.0623
     23 H           6.0010    0.2850    0.0000 H       1  UNL1        0.0575
     24 H           3.1951   -2.7150    0.0000 H       1  UNL1        0.0691
     25 H           4.9272    1.9050    0.0000 H       1  UNL1        0.0620
     26 H           6.0010   -2.7150    0.0000 H       1  UNL1        0.0654
     27 H           7.1962    0.9750    0.0000 H       1  UNL1        0.0625
     28 H           5.7932    3.4050    0.0000 H       1  UNL1        0.0625
     29 H           8.5991    1.7850    0.0000 H       1  UNL1        0.0654
     30 H           7.1962    4.2150    0.0000 H       1  UNL1        0.0654
     31 H           1.6900   -0.8681    0.0000 H       1  UNL1        0.0660
     32 H           1.4631   -1.7150    0.0000 H       1  UNL1        0.0660
     33 H           2.3100   -1.9419    0.0000 H       1  UNL1        0.0660
     34 H           5.1350   -4.2150    0.0000 H       1  UNL1        0.2921
     35 H           8.9282    4.2150    0.0000 H       1  UNL1        0.2921
@<TRIPOS>BOND
     1     1     6    1
     2     1    19    1
     3     2    13    1
     4     2    34    1
     5     3    18    1
     6     3    35    1
     7     4     5    1
     8     4     6   ar
     9     4     7   ar
    10     5     8    1
    11     5    20    1
    12     5    21    1
    13     6     9   ar
    14     7    12   ar
    15     7    22    1
    16     8    10    2
    17     8    23    1
    18     9    13   ar
    19     9    24    1
    20    10    11    1
    21    10    25    1
    22    11    14   ar
    23    11    15   ar
    24    12    13   ar
    25    12    26    1
    26    14    16   ar
    27    14    27    1
    28    15    17   ar
    29    15    28    1
    30    16    18   ar
    31    16    29    1
    32    17    18   ar
    33    17    30    1
    34    19    31    1
    35    19    32    1
    36    19    33    1
