@<TRIPOS>MOLECULE
IMPHY000208
 89 95 0 0 0
SMALL
GASTEIGER

@<TRIPOS>ATOM
      1 O           7.7035   -1.9617    0.0000 O.3     1  UNL1       -0.3790
      2 O           6.1859   -0.7929    0.0000 O.3     1  UNL1       -0.3837
      3 O           9.5261    1.8001    0.0000 O.3     1  UNL1       -0.3791
      4 O           5.8093    1.3743    0.0000 O.3     1  UNL1       -0.4542
      5 O           7.4009    3.1120    0.0000 O.3     1  UNL1       -0.3808
      6 O          11.2770   -0.4700    0.0000 O.3     1  UNL1       -0.3910
      7 O          10.3922   -2.4350    0.0000 O.3     1  UNL1       -0.3823
      8 O           5.6626    3.1001    0.0000 O.2     1  UNL1       -0.2449
      9 O           2.3952    0.2150    0.0000 O.3     1  UNL1       -0.4914
     10 O           1.2521    1.8562    0.0000 O.3     1  UNL1       -0.4915
     11 N          10.7215   -0.0289    0.0000 N.3     1  UNL1       -0.2979
     12 C           8.7748    0.3663    0.0000 C.3     1  UNL1        0.0223
     13 C           8.7748   -0.5013    0.0000 C.3     1  UNL1        0.0067
     14 C           9.7768    0.2603    0.0000 C.3     1  UNL1        0.0271
     15 C           8.0965    0.9073    0.0000 C.3     1  UNL1       -0.0190
     16 C           7.2507   -0.8491    0.0000 C.3     1  UNL1        0.0345
     17 C           7.2507    0.7142    0.0000 C.3     1  UNL1        0.0356
     18 C           9.5261   -0.9350    0.0000 C.3     1  UNL1        0.0386
     19 C           8.0965   -1.0422    0.0000 C.3     1  UNL1        0.0697
     20 C           6.8742   -0.0675    0.0000 C.3     1  UNL1        0.0974
     21 C           9.5261    0.8001    0.0000 C.3     1  UNL1        0.0683
     22 C           8.1743    1.7713    0.0000 C.3     1  UNL1       -0.0129
     23 C           6.8057    1.4590    0.0000 C.3     1  UNL1        0.1414
     24 C          10.7215   -0.7808    0.0000 C.3     1  UNL1        0.0097
     25 C           7.3765    2.1123    0.0000 C.3     1  UNL1        0.1216
     26 C          10.2775   -0.5013    0.0000 C.3     1  UNL1        0.0668
     27 C          10.2775    0.3663    0.0000 C.3     1  UNL1        0.0008
     28 C           6.2293    0.2025    0.0000 C.2     1  UNL1       -0.0532
     29 C           9.5261   -1.9350    0.0000 C.3     1  UNL1        0.0568
     30 C           6.2293    1.6870    0.0000 C.2     1  UNL1       -0.0505
     31 C          11.5254    0.5658    0.0000 C.3     1  UNL1       -0.0036
     32 C           8.3033   -2.7618    0.0000 C.3     1  UNL1        0.0368
     33 C          12.4424    0.1669    0.0000 C.3     1  UNL1       -0.0523
     34 C          10.3922    2.3001    0.0000 C.3     1  UNL1        0.0368
     35 C           5.2377    2.1949    0.0000 C.2     1  UNL1        0.3397
     36 C          10.3922   -3.4350    0.0000 C.3     1  UNL1        0.0365
     37 C           4.2413    2.1102    0.0000 C.ar    1  UNL1        0.0627
     38 C           3.8165    1.2050    0.0000 C.ar    1  UNL1       -0.0023
     39 C           3.6698    2.9308    0.0000 C.ar    1  UNL1       -0.0441
     40 C           2.8200    1.1203    0.0000 C.ar    1  UNL1        0.1623
     41 C           2.6734    2.8461    0.0000 C.ar    1  UNL1       -0.0155
     42 C           2.2485    1.9409    0.0000 C.ar    1  UNL1        0.1615
     43 C           1.3988    0.1304    0.0000 C.3     1  UNL1        0.0790
     44 C           0.6806    2.6768    0.0000 C.3     1  UNL1        0.0790
     45 H           8.8383   -1.3489    0.0000 H       1  UNL1        0.0340
     46 H          10.0887    1.0510    0.0000 H       1  UNL1        0.0473
     47 H           8.8781    1.2413    0.0000 H       1  UNL1        0.0313
     48 H           6.7207   -1.5137    0.0000 H       1  UNL1        0.0373
     49 H           6.4015    0.6761    0.0000 H       1  UNL1        0.0372
     50 H           8.2969   -1.6289    0.0000 H       1  UNL1        0.0603
     51 H           8.9892    1.1101    0.0000 H       1  UNL1        0.0603
     52 H           8.3570    2.3638    0.0000 H       1  UNL1        0.0300
     53 H           8.7826    1.6515    0.0000 H       1  UNL1        0.0300
     54 H           6.5256    2.0121    0.0000 H       1  UNL1        0.0770
     55 H          11.3409   -0.7543    0.0000 H       1  UNL1        0.0434
     56 H          10.7744   -1.3985    0.0000 H       1  UNL1        0.0434
     57 H          10.4473   -1.0976    0.0000 H       1  UNL1        0.0601
     58 H          10.4895    0.9489    0.0000 H       1  UNL1        0.0315
     59 H          10.8881    0.2587    0.0000 H       1  UNL1        0.0315
     60 H           5.7132   -0.1410    0.0000 H       1  UNL1        0.0598
     61 H           9.3141   -2.5176    0.0000 H       1  UNL1        0.0566
     62 H           8.9156   -1.8274    0.0000 H       1  UNL1        0.0566
     63 H           5.7204    2.0411    0.0000 H       1  UNL1        0.0599
     64 H          11.0758    0.9926    0.0000 H       1  UNL1        0.0424
     65 H          11.8677    1.0827    0.0000 H       1  UNL1        0.0424
     66 H           5.5830   -0.6481    0.0000 H       1  UNL1        0.2106
     67 H           6.8717    3.4350    0.0000 H       1  UNL1        0.2108
     68 H          11.6036   -0.9970    0.0000 H       1  UNL1        0.2098
     69 H           8.7994   -2.3899    0.0000 H       1  UNL1        0.0524
     70 H           8.6752   -3.2579    0.0000 H       1  UNL1        0.0524
     71 H           7.8072   -3.1337    0.0000 H       1  UNL1        0.0524
     72 H          12.6897    0.7354    0.0000 H       1  UNL1        0.0242
     73 H          13.0109   -0.0805    0.0000 H       1  UNL1        0.0242
     74 H          12.1951   -0.4017    0.0000 H       1  UNL1        0.0242
     75 H          10.0822    2.8370    0.0000 H       1  UNL1        0.0524
     76 H          10.9291    2.6101    0.0000 H       1  UNL1        0.0524
     77 H          10.7022    1.7632    0.0000 H       1  UNL1        0.0524
     78 H          11.0122   -3.4350    0.0000 H       1  UNL1        0.0523
     79 H          10.3922   -4.0550    0.0000 H       1  UNL1        0.0523
     80 H           9.7722   -3.4350    0.0000 H       1  UNL1        0.0523
     81 H           4.1708    0.6962    0.0000 H       1  UNL1        0.0663
     82 H           3.9332    3.4920    0.0000 H       1  UNL1        0.0627
     83 H           2.3190    3.3549    0.0000 H       1  UNL1        0.0655
     84 H           1.4513   -0.4874    0.0000 H       1  UNL1        0.0660
     85 H           0.7810    0.0779    0.0000 H       1  UNL1        0.0660
     86 H           1.3463    0.7481    0.0000 H       1  UNL1        0.0660
     87 H           0.1718    2.3224    0.0000 H       1  UNL1        0.0660
     88 H           0.3262    3.1855    0.0000 H       1  UNL1        0.0660
     89 H           1.1893    3.0311    0.0000 H       1  UNL1        0.0660
@<TRIPOS>BOND
     1    19     1    1
     2     1    32    1
     3    20     2    1
     4     2    66    1
     5    21     3    1
     6     3    34    1
     7    23     4    1
     8     4    35    1
     9    25     5    1
    10     5    67    1
    11    26     6    1
    12     6    68    1
    13     7    29    1
    14     7    36    1
    15     8    35    2
    16     9    40    1
    17     9    43    1
    18    10    42    1
    19    10    44    1
    20    11    14    1
    21    11    24    1
    22    11    31    1
    23    12    13    1
    24    12    14    1
    25    12    15    1
    26    12    21    1
    27    13    18    1
    28    13    19    1
    29    13    45    1
    30    14    16    1
    31    14    46    1
    32    15    17    1
    33    15    22    1
    34    15    47    1
    35    16    19    1
    36    16    20    1
    37    16    48    1
    38    17    20    1
    39    17    23    1
    40    17    49    1
    41    18    24    1
    42    18    26    1
    43    18    29    1
    44    19    50    1
    45    20    28    1
    46    21    27    1
    47    21    51    1
    48    22    25    1
    49    22    52    1
    50    22    53    1
    51    23    25    1
    52    23    54    1
    53    24    55    1
    54    24    56    1
    55    25    30    1
    56    26    27    1
    57    26    57    1
    58    27    58    1
    59    27    59    1
    60    28    30    2
    61    28    60    1
    62    29    61    1
    63    29    62    1
    64    30    63    1
    65    31    33    1
    66    31    64    1
    67    31    65    1
    68    32    69    1
    69    32    70    1
    70    32    71    1
    71    33    72    1
    72    33    73    1
    73    33    74    1
    74    34    75    1
    75    34    76    1
    76    34    77    1
    77    35    37    1
    78    36    78    1
    79    36    79    1
    80    36    80    1
    81    37    38   ar
    82    37    39   ar
    83    38    40   ar
    84    38    81    1
    85    39    41   ar
    86    39    82    1
    87    40    42   ar
    88    41    42   ar
    89    41    83    1
    90    43    84    1
    91    43    85    1
    92    43    86    1
    93    44    87    1
    94    44    88    1
    95    44    89    1
