@<TRIPOS>MOLECULE
IMPHY009933
 29 30 0 0 0
SMALL
GASTEIGER

@<TRIPOS>ATOM
      1 O           2.2788   -3.2762    0.0000 O.3     1  UNL1       -0.3451
      2 O           2.2788   -2.1006    0.0000 O.3     1  UNL1       -0.3369
      3 C           3.0878   -2.6884    0.0000 C.3     1  UNL1        0.1903
      4 C           3.8968   -3.2762    0.0000 C.3     1  UNL1        0.0075
      5 C           3.5878   -4.2272    0.0000 C.3     1  UNL1       -0.0242
      6 C           2.5878   -4.2272    0.0000 C.3     1  UNL1        0.0514
      7 C           2.5878   -1.1495    0.0000 C.3     1  UNL1        0.0913
      8 C           3.8968   -2.1006    0.0000 C.2     1  UNL1       -0.0271
      9 C           3.5878   -1.1495    0.0000 C.2     1  UNL1       -0.0536
     10 C           2.0000   -0.3405    0.0000 C.3     1  UNL1        0.0401
     11 C           2.4067    0.5730    0.0000 C.1     1  UNL1       -0.0855
     12 C           2.8135    1.4866    0.0000 C.1     1  UNL1       -0.0148
     13 C           3.2202    2.4001    0.0000 C.1     1  UNL1       -0.0151
     14 C           3.6270    3.3137    0.0000 C.1     1  UNL1       -0.0918
     15 C           4.0337    4.2272    0.0000 C.3     1  UNL1       -0.0016
     16 H           4.4632   -3.5283    0.0000 H       1  UNL1        0.0321
     17 H           4.2068   -2.7392    0.0000 H       1  UNL1        0.0321
     18 H           3.5230   -4.8438    0.0000 H       1  UNL1        0.0289
     19 H           4.1942   -4.3561    0.0000 H       1  UNL1        0.0289
     20 H           1.9813   -4.3561    0.0000 H       1  UNL1        0.0561
     21 H           2.6526   -4.8438    0.0000 H       1  UNL1        0.0561
     22 H           1.9754   -1.2465    0.0000 H       1  UNL1        0.0651
     23 H           4.4865   -2.2922    0.0000 H       1  UNL1        0.0623
     24 H           3.9522   -0.6479    0.0000 H       1  UNL1        0.0596
     25 H           1.4860    0.0062    0.0000 H       1  UNL1        0.0426
     26 H           1.5693   -0.7865    0.0000 H       1  UNL1        0.0426
     27 H           4.6001    3.9750    0.0000 H       1  UNL1        0.0362
     28 H           4.2859    4.7936    0.0000 H       1  UNL1        0.0362
     29 H           3.4673    4.4794    0.0000 H       1  UNL1        0.0362
@<TRIPOS>BOND
     1     1     3    1
     2     1     6    1
     3     2     3    1
     4     2     7    1
     5     3     4    1
     6     3     8    1
     7     4     5    1
     8     4    16    1
     9     4    17    1
    10     5     6    1
    11     5    18    1
    12     5    19    1
    13     6    20    1
    14     6    21    1
    15     7     9    1
    16     7    10    1
    17     7    22    1
    18     8     9    2
    19     8    23    1
    20     9    24    1
    21    10    11    1
    22    10    25    1
    23    10    26    1
    24    11    12    3
    25    12    13    1
    26    13    14    3
    27    14    15    1
    28    15    27    1
    29    15    28    1
    30    15    29    1
