@<TRIPOS>MOLECULE
IMPHY000837
 113 120 0 0 0
SMALL
GASTEIGER

@<TRIPOS>ATOM
      1 O           9.1562    5.5403    0.0000 O.3     1  UNL1       -0.3448
      2 O           7.3837    6.4351    0.0000 O.3     1  UNL1       -0.3480
      3 O           7.7331   -2.7038    0.0000 O.3     1  UNL1       -0.3451
      4 O           6.0010   -2.7038    0.0000 O.3     1  UNL1       -0.3405
      5 O           7.7331   -4.7038    0.0000 O.3     1  UNL1       -0.3841
      6 O           6.0010   -5.7038    0.0000 O.3     1  UNL1       -0.3401
      7 O           4.2690   -4.7038    0.0000 O.3     1  UNL1       -0.3865
      8 O           4.2690   -1.7038    0.0000 O.3     1  UNL1       -0.3924
      9 O           4.2690   -5.7038    0.0000 O.3     1  UNL1       -0.3431
     10 O           6.0010   -7.7038    0.0000 O.3     1  UNL1       -0.3841
     11 O           4.2690   -8.7038    0.0000 O.3     1  UNL1       -0.3864
     12 O           2.5369   -7.7038    0.0000 O.3     1  UNL1       -0.3866
     13 C           7.7624    3.4931    0.0000 C.3     1  UNL1       -0.0233
     14 C           8.6303    2.9965    0.0000 C.3     1  UNL1       -0.0295
     15 C           7.9678    4.4657    0.0000 C.3     1  UNL1       -0.0015
     16 C           8.6342    1.9965    0.0000 C.3     1  UNL1       -0.0306
     17 C           8.9561    4.5726    0.0000 C.3     1  UNL1        0.0660
     18 C           7.7701    1.4931    0.0000 C.3     1  UNL1       -0.0285
     19 C           9.3647    3.6664    0.0000 C.3     1  UNL1       -0.0226
     20 C           6.8983    2.9898    0.0000 C.3     1  UNL1       -0.0467
     21 C           7.5655    5.3683    0.0000 C.3     1  UNL1        0.0160
     22 C           6.9021    1.9898    0.0000 C.3     1  UNL1       -0.0486
     23 C           7.7580    0.4516    0.0000 C.3     1  UNL1       -0.0078
     24 C           8.2985    6.0311    0.0000 C.3     1  UNL1        0.1732
     25 C           6.8944    3.9898    0.0000 C.3     1  UNL1       -0.0590
     26 C           9.5461    1.4931    0.0000 C.3     1  UNL1       -0.0311
     27 C           8.6581   -0.0727    0.0000 C.2     1  UNL1       -0.0648
     28 C           6.8081   -0.0727    0.0000 C.3     1  UNL1       -0.0413
     29 C           6.5871    5.5750    0.0000 C.3     1  UNL1       -0.0572
     30 C           9.1057    6.6213    0.0000 C.3     1  UNL1        0.0020
     31 C           9.5581    0.4516    0.0000 C.2     1  UNL1       -0.0839
     32 C           6.8939    0.9549    0.0000 C.3     1  UNL1       -0.0556
     33 C           8.6706   -1.1576    0.0000 C.3     1  UNL1       -0.0047
     34 C           6.7956   -1.1576    0.0000 C.3     1  UNL1       -0.0254
     35 C           7.7331   -1.7038    0.0000 C.3     1  UNL1        0.0655
     36 C           8.9982    7.6155    0.0000 C.3     1  UNL1       -0.0435
     37 C           8.0835    8.0195    0.0000 C.3     1  UNL1       -0.0201
     38 C           7.2762    7.4293    0.0000 C.3     1  UNL1        0.0535
     39 C           7.9760    9.0138    0.0000 C.3     1  UNL1       -0.0603
     40 C           6.8671   -3.2038    0.0000 C.3     1  UNL1        0.1882
     41 C           6.8671   -4.2038    0.0000 C.3     1  UNL1        0.1345
     42 C           6.0010   -4.7038    0.0000 C.3     1  UNL1        0.1206
     43 C           5.1350   -3.2038    0.0000 C.3     1  UNL1        0.1130
     44 C           5.1350   -4.2038    0.0000 C.3     1  UNL1        0.1123
     45 C           4.2690   -2.7038    0.0000 C.3     1  UNL1        0.0730
     46 C           5.1350   -6.2038    0.0000 C.3     1  UNL1        0.1883
     47 C           5.1350   -7.2038    0.0000 C.3     1  UNL1        0.1341
     48 C           4.2690   -7.7038    0.0000 C.3     1  UNL1        0.1140
     49 C           3.4030   -6.2038    0.0000 C.3     1  UNL1        0.0873
     50 C           3.4030   -7.2038    0.0000 C.3     1  UNL1        0.1095
     51 C           2.5369   -5.7038    0.0000 C.3     1  UNL1       -0.0361
     52 H           9.4086    2.6548    0.0000 H       1  UNL1        0.0310
     53 H           7.1225    4.3762    0.0000 H       1  UNL1        0.0335
     54 H           9.3653    2.4300    0.0000 H       1  UNL1        0.0310
     55 H           9.8010    4.6658    0.0000 H       1  UNL1        0.0600
     56 H           8.5045    1.0653    0.0000 H       1  UNL1        0.0312
     57 H           9.7321    3.1670    0.0000 H       1  UNL1        0.0293
     58 H           9.9000    3.9792    0.0000 H       1  UNL1        0.0293
     59 H           6.6840    3.5716    0.0000 H       1  UNL1        0.0271
     60 H           6.2881    2.8798    0.0000 H       1  UNL1        0.0271
     61 H           7.4040    5.9669    0.0000 H       1  UNL1        0.0354
     62 H           6.2911    2.0951    0.0000 H       1  UNL1        0.0268
     63 H           6.6923    1.4064    0.0000 H       1  UNL1        0.0268
     64 H           7.2023    4.5279    0.0000 H       1  UNL1        0.0235
     65 H           6.3563    4.2977    0.0000 H       1  UNL1        0.0235
     66 H           6.5865    3.4517    0.0000 H       1  UNL1        0.0235
     67 H          10.1581    1.3941    0.0000 H       1  UNL1        0.0310
     68 H           9.7484    2.0792    0.0000 H       1  UNL1        0.0310
     69 H           6.6058    0.5134    0.0000 H       1  UNL1        0.0274
     70 H           6.1961   -0.1717    0.0000 H       1  UNL1        0.0274
     71 H           6.7152    6.1816    0.0000 H       1  UNL1        0.0234
     72 H           5.9805    5.7032    0.0000 H       1  UNL1        0.0234
     73 H           6.4590    4.9684    0.0000 H       1  UNL1        0.0234
     74 H           9.3792    6.0649    0.0000 H       1  UNL1        0.0317
     75 H           9.7012    6.7940    0.0000 H       1  UNL1        0.0317
     76 H          10.0975    0.1457    0.0000 H       1  UNL1        0.0572
     77 H           7.2060    1.4906    0.0000 H       1  UNL1        0.0238
     78 H           6.3582    1.2670    0.0000 H       1  UNL1        0.0238
     79 H           6.5818    0.4192    0.0000 H       1  UNL1        0.0238
     80 H           8.8864   -1.7389    0.0000 H       1  UNL1        0.0335
     81 H           9.2802   -1.0445    0.0000 H       1  UNL1        0.0335
     82 H           6.1860   -1.0445    0.0000 H       1  UNL1        0.0290
     83 H           6.5798   -1.7389    0.0000 H       1  UNL1        0.0290
     84 H           8.2706   -2.0127    0.0000 H       1  UNL1        0.0600
     85 H           9.6168    7.5741    0.0000 H       1  UNL1        0.0270
     86 H           9.1464    8.2176    0.0000 H       1  UNL1        0.0270
     87 H           8.5840    8.3855    0.0000 H       1  UNL1        0.0320
     88 H           7.0028    7.9858    0.0000 H       1  UNL1        0.0563
     89 H           6.6808    7.2567    0.0000 H       1  UNL1        0.0563
     90 H           8.5924    9.0804    0.0000 H       1  UNL1        0.0233
     91 H           7.9093    9.6302    0.0000 H       1  UNL1        0.0233
     92 H           7.3596    8.9471    0.0000 H       1  UNL1        0.0233
     93 H           7.4040   -3.5138    0.0000 H       1  UNL1        0.0937
     94 H           6.8671   -4.8238    0.0000 H       1  UNL1        0.0671
     95 H           5.4641   -5.0138    0.0000 H       1  UNL1        0.0651
     96 H           5.1350   -2.5838    0.0000 H       1  UNL1        0.0647
     97 H           4.5981   -3.8938    0.0000 H       1  UNL1        0.0647
     98 H           7.7331   -5.3238    0.0000 H       1  UNL1        0.2101
     99 H           3.6584   -2.5961    0.0000 H       1  UNL1        0.0584
    100 H           4.0569   -3.2864    0.0000 H       1  UNL1        0.0584
    101 H           3.7320   -4.3938    0.0000 H       1  UNL1        0.2100
    102 H           5.1350   -5.5838    0.0000 H       1  UNL1        0.0938
    103 H           5.1350   -7.8238    0.0000 H       1  UNL1        0.0671
    104 H           3.7320   -1.3938    0.0000 H       1  UNL1        0.2095
    105 H           3.7320   -8.0138    0.0000 H       1  UNL1        0.0648
    106 H           3.4030   -5.5838    0.0000 H       1  UNL1        0.0621
    107 H           2.8660   -6.8938    0.0000 H       1  UNL1        0.0646
    108 H           6.0010   -8.3238    0.0000 H       1  UNL1        0.2101
    109 H           2.8469   -5.1668    0.0000 H       1  UNL1        0.0255
    110 H           2.0000   -5.3938    0.0000 H       1  UNL1        0.0255
    111 H           2.2269   -6.2407    0.0000 H       1  UNL1        0.0255
    112 H           3.7320   -9.0138    0.0000 H       1  UNL1        0.2100
    113 H           2.0000   -7.3938    0.0000 H       1  UNL1        0.2100
@<TRIPOS>BOND
     1     1    17    1
     2    24     1    1
     3     2    24    1
     4     2    38    1
     5    35     3    1
     6    40     3    1
     7     4    40    1
     8     4    43    1
     9    41     5    1
    10     5    98    1
    11    42     6    1
    12    46     6    1
    13    44     7    1
    14     7   101    1
    15     8    45    1
    16     8   104    1
    17     9    46    1
    18     9    49    1
    19    47    10    1
    20    10   108    1
    21    48    11    1
    22    11   112    1
    23    50    12    1
    24    12   113    1
    25    13    14    1
    26    13    15    1
    27    13    20    1
    28    13    25    1
    29    14    16    1
    30    14    19    1
    31    14    52    1
    32    15    17    1
    33    15    21    1
    34    15    53    1
    35    16    18    1
    36    16    26    1
    37    16    54    1
    38    17    19    1
    39    17    55    1
    40    18    22    1
    41    18    23    1
    42    18    56    1
    43    19    57    1
    44    19    58    1
    45    20    22    1
    46    20    59    1
    47    20    60    1
    48    21    24    1
    49    21    29    1
    50    21    61    1
    51    22    62    1
    52    22    63    1
    53    23    27    1
    54    23    28    1
    55    23    32    1
    56    24    30    1
    57    25    64    1
    58    25    65    1
    59    25    66    1
    60    26    31    1
    61    26    67    1
    62    26    68    1
    63    27    31    2
    64    27    33    1
    65    28    34    1
    66    28    69    1
    67    28    70    1
    68    29    71    1
    69    29    72    1
    70    29    73    1
    71    30    36    1
    72    30    74    1
    73    30    75    1
    74    31    76    1
    75    32    77    1
    76    32    78    1
    77    32    79    1
    78    33    35    1
    79    33    80    1
    80    33    81    1
    81    34    35    1
    82    34    82    1
    83    34    83    1
    84    35    84    1
    85    36    37    1
    86    36    85    1
    87    36    86    1
    88    37    38    1
    89    37    39    1
    90    37    87    1
    91    38    88    1
    92    38    89    1
    93    39    90    1
    94    39    91    1
    95    39    92    1
    96    40    41    1
    97    40    93    1
    98    41    42    1
    99    41    94    1
   100    42    44    1
   101    42    95    1
   102    43    44    1
   103    43    45    1
   104    43    96    1
   105    44    97    1
   106    45    99    1
   107    45   100    1
   108    46    47    1
   109    46   102    1
   110    47    48    1
   111    47   103    1
   112    48    50    1
   113    48   105    1
   114    49    50    1
   115    49    51    1
   116    49   106    1
   117    50   107    1
   118    51   109    1
   119    51   110    1
   120    51   111    1
