@<TRIPOS>MOLECULE
IMPHY011242
 36 39 0 0 0
SMALL
GASTEIGER

@<TRIPOS>ATOM
      1 O           5.6757   -1.9665    0.0000 O.3     1  UNL1       -0.4829
      2 C           6.8179   -2.6141    0.0000 C.3     1  UNL1        0.1300
      3 C           6.8061   -3.9447    0.0000 C.3     1  UNL1        0.0150
      4 C           7.8424   -4.7572    0.0000 C.3     1  UNL1       -0.0227
      5 C           8.7373   -5.7228    0.0000 C.3     1  UNL1       -0.0074
      6 C           9.1141   -4.4628    0.0000 C.3     1  UNL1       -0.0226
      7 C          10.3152   -5.2989    0.0000 C.3     1  UNL1        0.0001
      8 C          11.3750   -4.5453    0.0000 C.3     1  UNL1        0.0214
      9 C          10.9864   -3.2971    0.0000 C.2     1  UNL1       -0.0482
     10 C           9.6793   -3.2853    0.0000 C.2     1  UNL1       -0.0345
     11 C           9.1141   -2.0960    0.0000 C.3     1  UNL1        0.0289
     12 C           7.8424   -1.8016    0.0000 C.3     1  UNL1        0.0443
     13 C           4.5453   -2.6377    0.0000 C.ar    1  UNL1        0.1434
     14 C           4.5453   -3.9447    0.0000 C.ar    1  UNL1        0.0505
     15 C           5.6757   -4.5924    0.0000 C.3     1  UNL1        0.0277
     16 C           3.4148   -1.9665    0.0000 C.ar    1  UNL1        0.1149
     17 C           2.2726   -2.6377    0.0000 C.ar    1  UNL1        0.2080
     18 C           2.2726   -3.9330    0.0000 C.ar    1  UNL1        0.1199
     19 C           3.4148   -4.5924    0.0000 C.ar    1  UNL1        0.2008
     20 C           6.8297   -1.3188    0.0000 C.3     1  UNL1        0.0433
     21 C           8.3369   -6.9592    0.0000 C.3     1  UNL1       -0.0006
     22 C           9.6204   -6.6766    0.0000 C.3     1  UNL1       -0.0006
     23 C          11.7753   -2.2373    0.0000 C.3     1  UNL1        0.0260
     24 C           5.6757   -6.5942    0.0000 C.3     1  UNL1        0.0044
     25 C           4.5453   -7.2418    0.0000 C.3     1  UNL1        0.0003
     26 C           3.4148   -6.5942    0.0000 C.3     1  UNL1        0.0000
     27 C           3.4148   -0.6594    0.0000 C.2     1  UNL1        0.2404
     28 O           2.2726   -0.0118    0.0000 O.2     1  UNL1       -0.2829
     29 O           1.1422   -1.9665    0.0000 O.3     1  UNL1       -0.2861
     30 C           1.1422   -4.5924    0.0000 C.2     1  UNL1        0.2406
     31 O           1.1422   -5.8994    0.0000 O.2     1  UNL1       -0.2829
     32 O           3.4148   -5.8994    0.0000 O.3     1  UNL1       -0.2866
     33 C           4.5453   -8.5489    0.0000 C.3     1  UNL1        0.0000
     34 H           6.8061   -5.2518    0.0000 H       1  UNL1        0.0352
     35 H           7.2772   -5.9465    0.0000 H       1  UNL1        0.0314
     36 H           9.1141   -3.1558    0.0000 H       1  UNL1        0.0316
@<TRIPOS>BOND
     1     1    13    1
     2     1     2    1
     3     2    20    1
     4     2    12    1
     5     2     3    1
     6     3    15    1
     7     3    34    1
     8     3     4    1
     9     4     5    1
    10     4     6    1
    11     4    35    1
    12     5     6    1
    13     5    21    1
    14     5    22    1
    15     6     7    1
    16     6    36    1
    17     7     8    1
    18     8     9    1
    19     9    10    2
    20     9    23    1
    21    10    11    1
    22    11    12    1
    23    13    16   ar
    24    13    14   ar
    25    14    19   ar
    26    14    15    1
    27    15    24    1
    28    16    17   ar
    29    16    27    1
    30    17    18   ar
    31    17    29    1
    32    18    19   ar
    33    18    30    1
    34    19    32    1
    35    24    25    1
    36    25    26    1
    37    25    33    1
    38    27    28    2
    39    30    31    2
