@<TRIPOS>MOLECULE
IMPHY013327
 45 45 0 0 0
SMALL
GASTEIGER

@<TRIPOS>ATOM
      1 O           5.4641    1.5000    0.0000 O.3     1  UNL1       -0.3384
      2 O           5.4641   -1.5000    0.0000 O.3     1  UNL1       -0.4537
      3 O           3.7320   -0.5000    0.0000 O.3     1  UNL1       -0.4549
      4 O           7.1962   -0.5000    0.0000 O.3     1  UNL1       -0.4525
      5 O           7.1962    1.5000    0.0000 O.3     1  UNL1       -0.3511
      6 O           3.7320    2.5000    0.0000 O.3     1  UNL1       -0.3803
      7 O           3.7320   -1.5000    0.0000 O.2     1  UNL1       -0.2512
      8 O           2.8660    1.0000    0.0000 O.2     1  UNL1       -0.2512
      9 O           8.0622    1.0000    0.0000 O.2     1  UNL1       -0.2512
     10 C           5.4641   -0.5000    0.0000 C.3     1  UNL1        0.1836
     11 C           4.5981   -0.0000    0.0000 C.3     1  UNL1        0.1715
     12 C           6.3301   -0.0000    0.0000 C.3     1  UNL1        0.1936
     13 C           4.5981    1.0000    0.0000 C.3     1  UNL1        0.1254
     14 C           6.3301    1.0000    0.0000 C.3     1  UNL1        0.2002
     15 C           3.7320    1.5000    0.0000 C.3     1  UNL1        0.0772
     16 C           4.5981   -2.0000    0.0000 C.2     1  UNL1        0.3044
     17 C           2.8660   -0.0000    0.0000 C.2     1  UNL1        0.3044
     18 C           8.0622   -0.0000    0.0000 C.2     1  UNL1        0.3045
     19 C           7.1962    2.5000    0.0000 C.3     1  UNL1        0.0396
     20 C           2.8660    3.0000    0.0000 C.3     1  UNL1        0.0366
     21 C           4.5981   -3.0000    0.0000 C.3     1  UNL1        0.0332
     22 C           2.0000   -0.5000    0.0000 C.3     1  UNL1        0.0332
     23 C           8.9282   -0.5000    0.0000 C.3     1  UNL1        0.0332
     24 H           4.9272   -0.8100    0.0000 H       1  UNL1        0.0812
     25 H           4.5981   -0.6200    0.0000 H       1  UNL1        0.0800
     26 H           6.3301   -0.6200    0.0000 H       1  UNL1        0.0825
     27 H           4.5981    1.6200    0.0000 H       1  UNL1        0.0658
     28 H           6.3301    1.6200    0.0000 H       1  UNL1        0.0950
     29 H           3.1215    1.6077    0.0000 H       1  UNL1        0.0587
     30 H           3.5200    0.9174    0.0000 H       1  UNL1        0.0587
     31 H           7.8162    2.5000    0.0000 H       1  UNL1        0.0525
     32 H           7.1962    3.1200    0.0000 H       1  UNL1        0.0525
     33 H           6.5762    2.5000    0.0000 H       1  UNL1        0.0525
     34 H           3.1760    3.5369    0.0000 H       1  UNL1        0.0524
     35 H           2.3291    3.3100    0.0000 H       1  UNL1        0.0524
     36 H           2.5560    2.4631    0.0000 H       1  UNL1        0.0524
     37 H           3.9781   -3.0000    0.0000 H       1  UNL1        0.0342
     38 H           4.5981   -3.6200    0.0000 H       1  UNL1        0.0342
     39 H           5.2181   -3.0000    0.0000 H       1  UNL1        0.0342
     40 H           1.6900    0.0369    0.0000 H       1  UNL1        0.0342
     41 H           1.4631   -0.8100    0.0000 H       1  UNL1        0.0342
     42 H           2.3100   -1.0369    0.0000 H       1  UNL1        0.0342
     43 H           8.6182   -1.0369    0.0000 H       1  UNL1        0.0342
     44 H           9.4651   -0.8100    0.0000 H       1  UNL1        0.0342
     45 H           9.2382    0.0369    0.0000 H       1  UNL1        0.0342
@<TRIPOS>BOND
     1     1    13    1
     2     1    14    1
     3    10     2    1
     4     2    16    1
     5    11     3    1
     6     3    17    1
     7    12     4    1
     8     4    18    1
     9    14     5    1
    10     5    19    1
    11     6    15    1
    12     6    20    1
    13     7    16    2
    14     8    17    2
    15     9    18    2
    16    10    11    1
    17    10    12    1
    18    10    24    1
    19    11    13    1
    20    11    25    1
    21    12    14    1
    22    12    26    1
    23    13    15    1
    24    13    27    1
    25    14    28    1
    26    15    29    1
    27    15    30    1
    28    16    21    1
    29    17    22    1
    30    18    23    1
    31    19    31    1
    32    19    32    1
    33    19    33    1
    34    20    34    1
    35    20    35    1
    36    20    36    1
    37    21    37    1
    38    21    38    1
    39    21    39    1
    40    22    40    1
    41    22    41    1
    42    22    42    1
    43    23    43    1
    44    23    44    1
    45    23    45    1
