@<TRIPOS>MOLECULE
IMPHY001804
 36 39 0 0 0
SMALL
GASTEIGER

@<TRIPOS>ATOM
      1 O           4.3107    1.3137    0.0000 O.2     1  UNL1       -0.4523
      2 O           3.3926   -1.2347    0.0000 O.3     1  UNL1       -0.4556
      3 O           2.5405    0.3169    0.0000 O.3     1  UNL1       -0.3519
      4 O           6.9088   -0.1863    0.0000 O.2     1  UNL1       -0.2863
      5 O           7.8129    1.3106    0.0000 O.3     1  UNL1       -0.5055
      6 O           6.0548    4.3830    0.0000 O.3     1  UNL1       -0.5063
      7 O           5.2298   -4.3830    0.0000 O.3     1  UNL1       -0.5066
      8 C           5.1767   -0.1863    0.0000 C.ar    1  UNL1        0.0773
      9 C           4.3107    0.3137    0.0000 C.ar    1  UNL1        0.1848
     10 C           5.1928   -1.2278    0.0000 C.ar    1  UNL1        0.0313
     11 C           6.0427    1.3137    0.0000 C.ar    1  UNL1        0.1063
     12 C           3.4007   -0.1931    0.0000 C.3     1  UNL1        0.2592
     13 C           6.0427    0.3137    0.0000 C.ar    1  UNL1        0.2043
     14 C           5.1767    1.8137    0.0000 C.ar    1  UNL1        0.1461
     15 C           4.2947   -1.7555    0.0000 C.ar    1  UNL1        0.1357
     16 C           6.9527    1.8206    0.0000 C.ar    1  UNL1        0.1376
     17 C           6.9608    2.8622    0.0000 C.ar    1  UNL1        0.0332
     18 C           5.1606    2.8552    0.0000 C.ar    1  UNL1        0.0234
     19 C           6.1447   -1.7484    0.0000 C.ar    1  UNL1       -0.0469
     20 C           6.0587    3.3830    0.0000 C.ar    1  UNL1        0.1267
     21 C           4.2864   -2.8405    0.0000 C.ar    1  UNL1        0.0223
     22 C           6.1614   -2.8333    0.0000 C.ar    1  UNL1       -0.0194
     23 C           5.2260   -3.3830    0.0000 C.ar    1  UNL1        0.1204
     24 C           7.8287    3.3588    0.0000 C.3     1  UNL1       -0.0327
     25 H           2.6605   -0.6110    0.0000 H       1  UNL1        0.1143
     26 H           4.6202    3.1590    0.0000 H       1  UNL1        0.0691
     27 H           6.6756   -1.4281    0.0000 H       1  UNL1        0.0626
     28 H           3.7482   -3.1484    0.0000 H       1  UNL1        0.0691
     29 H           6.7019   -3.1370    0.0000 H       1  UNL1        0.0654
     30 H           8.1366    2.8207    0.0000 H       1  UNL1        0.0280
     31 H           8.3668    3.6668    0.0000 H       1  UNL1        0.0280
     32 H           7.5208    3.8970    0.0000 H       1  UNL1        0.0280
     33 H           2.0000    0.0131    0.0000 H       1  UNL1        0.2140
     34 H           8.3534    1.6144    0.0000 H       1  UNL1        0.2922
     35 H           5.5167    4.6909    0.0000 H       1  UNL1        0.2921
     36 H           5.7680   -4.6909    0.0000 H       1  UNL1        0.2921
@<TRIPOS>BOND
     1     1     9   ar
     2     1    14   ar
     3     2    12    1
     4     2    15    1
     5     3    12    1
     6     3    33    1
     7     4    13    2
     8     5    16    1
     9     5    34    1
    10     6    20    1
    11     6    35    1
    12     7    23    1
    13     7    36    1
    14     8     9   ar
    15     8    10    1
    16     8    13   ar
    17     9    12    1
    18    10    15   ar
    19    10    19   ar
    20    11    13   ar
    21    11    14   ar
    22    11    16   ar
    23    12    25    1
    24    14    18   ar
    25    15    21   ar
    26    16    17   ar
    27    17    20   ar
    28    17    24    1
    29    18    20   ar
    30    18    26    1
    31    19    22   ar
    32    19    27    1
    33    21    23   ar
    34    21    28    1
    35    22    23   ar
    36    22    29    1
    37    24    30    1
    38    24    31    1
    39    24    32    1
