@<TRIPOS>MOLECULE
IMPHY012638
 39 40 0 0 0
SMALL
GASTEIGER

@<TRIPOS>ATOM
      1 C           3.7320    0.7500    0.0000 C.3     1  UNL1       -0.0130
      2 C           2.8660    1.2500    0.0000 C.3     1  UNL1       -0.0368
      3 C           3.7320   -0.2500    0.0000 C.2     1  UNL1       -0.0446
      4 C           2.0000    0.7500    0.0000 C.3     1  UNL1       -0.0462
      5 C           4.6260    1.2847    0.0000 C.3     1  UNL1       -0.0423
      6 C           2.8660   -0.7500    0.0000 C.2     1  UNL1       -0.0635
      7 C           2.0000   -0.2500    0.0000 C.3     1  UNL1       -0.0307
      8 C           5.5321    0.7708    0.0000 C.3     1  UNL1       -0.0311
      9 C           2.8660   -1.7500    0.0000 C.3     1  UNL1       -0.0250
     10 C           2.8660    2.2500    0.0000 C.3     1  UNL1       -0.0619
     11 C           4.6260   -0.7847    0.0000 C.2     1  UNL1       -0.0593
     12 C           5.5321   -0.2708    0.0000 C.2     1  UNL1       -0.0723
     13 C           2.0000   -2.2500    0.0000 C.3     1  UNL1       -0.0589
     14 C           3.7320   -2.2500    0.0000 C.3     1  UNL1       -0.0589
     15 C           6.3961   -0.7742    0.0000 C.3     1  UNL1       -0.0435
     16 H           4.2714    0.4441    0.0000 H       1  UNL1        0.0351
     17 H           3.4030    1.5600    0.0000 H       1  UNL1        0.0304
     18 H           1.7880    1.3326    0.0000 H       1  UNL1        0.0271
     19 H           1.3894    0.6423    0.0000 H       1  UNL1        0.0271
     20 H           5.0196    1.7637    0.0000 H       1  UNL1        0.0274
     21 H           4.2214    1.7544    0.0000 H       1  UNL1        0.0274
     22 H           1.3894   -0.1423    0.0000 H       1  UNL1        0.0310
     23 H           1.7880   -0.8326    0.0000 H       1  UNL1        0.0310
     24 H           6.1429    0.6647    0.0000 H       1  UNL1        0.0310
     25 H           5.7411    1.3545    0.0000 H       1  UNL1        0.0310
     26 H           2.8660   -2.3700    0.0000 H       1  UNL1        0.0340
     27 H           3.4860    2.2500    0.0000 H       1  UNL1        0.0233
     28 H           2.8660    2.8700    0.0000 H       1  UNL1        0.0233
     29 H           2.2460    2.2500    0.0000 H       1  UNL1        0.0233
     30 H           4.6188   -1.4046    0.0000 H       1  UNL1        0.0620
     31 H           1.6900   -1.7131    0.0000 H       1  UNL1        0.0235
     32 H           1.4631   -2.5600    0.0000 H       1  UNL1        0.0235
     33 H           2.3100   -2.7869    0.0000 H       1  UNL1        0.0235
     34 H           3.4220   -2.7869    0.0000 H       1  UNL1        0.0235
     35 H           4.2690   -2.5600    0.0000 H       1  UNL1        0.0235
     36 H           4.0420   -1.7131    0.0000 H       1  UNL1        0.0235
     37 H           6.0841   -1.3099    0.0000 H       1  UNL1        0.0274
     38 H           6.9319   -1.0862    0.0000 H       1  UNL1        0.0274
     39 H           6.7082   -0.2384    0.0000 H       1  UNL1        0.0274
@<TRIPOS>BOND
     1     1     2    1
     2     1     3    1
     3     1     5    1
     4     1    16    1
     5     2     4    1
     6     2    10    1
     7     2    17    1
     8     3     6    2
     9     3    11    1
    10     4     7    1
    11     4    18    1
    12     4    19    1
    13     5     8    1
    14     5    20    1
    15     5    21    1
    16     6     7    1
    17     6     9    1
    18     7    22    1
    19     7    23    1
    20     8    12    1
    21     8    24    1
    22     8    25    1
    23     9    13    1
    24     9    14    1
    25     9    26    1
    26    10    27    1
    27    10    28    1
    28    10    29    1
    29    11    12    2
    30    11    30    1
    31    12    15    1
    32    13    31    1
    33    13    32    1
    34    13    33    1
    35    14    34    1
    36    14    35    1
    37    14    36    1
    38    15    37    1
    39    15    38    1
    40    15    39    1
