@<TRIPOS>MOLECULE
IMPHY001764
 37 37 0 0 0
SMALL
GASTEIGER

@<TRIPOS>ATOM
      1 O           4.5981   -1.2500    0.0000 O.3     1  UNL1       -0.4843
      2 O           2.8660   -0.2500    0.0000 O.3     1  UNL1       -0.4914
      3 C           4.5981   -0.2500    0.0000 C.ar    1  UNL1        0.1624
      4 C           3.7320    0.2500    0.0000 C.ar    1  UNL1        0.1621
      5 C           4.5981    1.7500    0.0000 C.ar    1  UNL1       -0.0216
      6 C           3.7320    1.2500    0.0000 C.ar    1  UNL1       -0.0092
      7 C           5.4641   -1.7500    0.0000 C.3     1  UNL1        0.1082
      8 C           5.4641    0.2500    0.0000 C.ar    1  UNL1       -0.0157
      9 C           5.4641    1.2500    0.0000 C.ar    1  UNL1       -0.0509
     10 C           5.4641   -2.7500    0.0000 C.2     1  UNL1       -0.0484
     11 C           6.3301   -3.2500    0.0000 C.2     1  UNL1       -0.0765
     12 C           4.5981    2.7500    0.0000 C.2     1  UNL1       -0.0587
     13 C           6.3301   -4.2500    0.0000 C.3     1  UNL1       -0.0439
     14 C           7.1962   -2.7500    0.0000 C.3     1  UNL1       -0.0439
     15 C           5.4641    3.2500    0.0000 C.2     1  UNL1       -0.0865
     16 C           2.0000    0.2500    0.0000 C.3     1  UNL1        0.0790
     17 C           5.4641    4.2500    0.0000 C.3     1  UNL1       -0.0465
     18 H           3.1951    1.5600    0.0000 H       1  UNL1        0.0661
     19 H           6.0747   -1.8577    0.0000 H       1  UNL1        0.0742
     20 H           5.6762   -1.1674    0.0000 H       1  UNL1        0.0742
     21 H           6.0010   -0.0600    0.0000 H       1  UNL1        0.0655
     22 H           6.0010    1.5600    0.0000 H       1  UNL1        0.0625
     23 H           4.9272   -3.0600    0.0000 H       1  UNL1        0.0605
     24 H           4.0611    3.0600    0.0000 H       1  UNL1        0.0620
     25 H           5.7101   -4.2500    0.0000 H       1  UNL1        0.0274
     26 H           6.3301   -4.8700    0.0000 H       1  UNL1        0.0274
     27 H           6.9501   -4.2500    0.0000 H       1  UNL1        0.0274
     28 H           7.5062   -3.2869    0.0000 H       1  UNL1        0.0274
     29 H           7.7331   -2.4400    0.0000 H       1  UNL1        0.0274
     30 H           6.8862   -2.2131    0.0000 H       1  UNL1        0.0274
     31 H           6.0010    2.9400    0.0000 H       1  UNL1        0.0569
     32 H           2.3100    0.7869    0.0000 H       1  UNL1        0.0660
     33 H           1.4631    0.5600    0.0000 H       1  UNL1        0.0660
     34 H           1.6900   -0.2869    0.0000 H       1  UNL1        0.0660
     35 H           6.0841    4.2500    0.0000 H       1  UNL1        0.0272
     36 H           5.4641    4.8700    0.0000 H       1  UNL1        0.0272
     37 H           4.8441    4.2500    0.0000 H       1  UNL1        0.0272
@<TRIPOS>BOND
     1     1     3    1
     2     1     7    1
     3     2     4    1
     4     2    16    1
     5     3     4   ar
     6     3     8   ar
     7     4     6   ar
     8     5     6   ar
     9     5     9   ar
    10     5    12    1
    11     6    18    1
    12     7    10    1
    13     7    19    1
    14     7    20    1
    15     8     9   ar
    16     8    21    1
    17     9    22    1
    18    10    11    2
    19    10    23    1
    20    11    13    1
    21    11    14    1
    22    12    15    2
    23    12    24    1
    24    13    25    1
    25    13    26    1
    26    13    27    1
    27    14    28    1
    28    14    29    1
    29    14    30    1
    30    15    17    1
    31    15    31    1
    32    16    32    1
    33    16    33    1
    34    16    34    1
    35    17    35    1
    36    17    36    1
    37    17    37    1
