@<TRIPOS>MOLECULE
IMPHY007289
 40 41 0 0 0
SMALL
GASTEIGER

@<TRIPOS>ATOM
      1 O           2.5369    1.7500    0.0000 O.3     1  UNL1       -0.3907
      2 C           6.0010   -1.2500    0.0000 C.3     1  UNL1       -0.0162
      3 C           5.1350   -1.7500    0.0000 C.3     1  UNL1       -0.0373
      4 C           6.0010   -0.2500    0.0000 C.2     1  UNL1       -0.0604
      5 C           5.1350    0.2500    0.0000 C.3     1  UNL1       -0.0010
      6 C           6.9473   -1.5547    0.0000 C.3     1  UNL1       -0.0426
      7 C           4.2690   -1.2500    0.0000 C.3     1  UNL1       -0.0491
      8 C           4.2690   -0.2500    0.0000 C.3     1  UNL1       -0.0428
      9 C           7.5309   -0.7500    0.0000 C.3     1  UNL1       -0.0312
     10 C           6.9473    0.0547    0.0000 C.2     1  UNL1       -0.0725
     11 C           5.1350   -2.7500    0.0000 C.3     1  UNL1       -0.0619
     12 C           5.1350    1.2500    0.0000 C.2     1  UNL1       -0.0758
     13 C           7.2579    1.0052    0.0000 C.3     1  UNL1       -0.0435
     14 C           4.2690    1.7500    0.0000 C.2     1  UNL1       -0.0509
     15 C           3.4030    1.2500    0.0000 C.3     1  UNL1        0.0651
     16 C           4.2690    2.7500    0.0000 C.3     1  UNL1       -0.0416
     17 H           6.0666   -1.8665    0.0000 H       1  UNL1        0.0349
     18 H           5.6720   -2.0600    0.0000 H       1  UNL1        0.0304
     19 H           5.6720    0.5600    0.0000 H       1  UNL1        0.0388
     20 H           6.6962   -2.1216    0.0000 H       1  UNL1        0.0274
     21 H           7.4846   -1.8640    0.0000 H       1  UNL1        0.0274
     22 H           3.6584   -1.1423    0.0000 H       1  UNL1        0.0268
     23 H           4.0569   -1.8326    0.0000 H       1  UNL1        0.0268
     24 H           4.0569    0.3326    0.0000 H       1  UNL1        0.0274
     25 H           3.6584   -0.3577    0.0000 H       1  UNL1        0.0274
     26 H           7.9917   -1.1647    0.0000 H       1  UNL1        0.0310
     27 H           7.9917   -0.3353    0.0000 H       1  UNL1        0.0310
     28 H           4.5150   -2.7500    0.0000 H       1  UNL1        0.0233
     29 H           5.1350   -3.3700    0.0000 H       1  UNL1        0.0233
     30 H           5.7550   -2.7500    0.0000 H       1  UNL1        0.0233
     31 H           5.6720    1.5600    0.0000 H       1  UNL1        0.0578
     32 H           7.8472    0.8126    0.0000 H       1  UNL1        0.0274
     33 H           7.4505    1.5946    0.0000 H       1  UNL1        0.0274
     34 H           6.6686    1.1979    0.0000 H       1  UNL1        0.0274
     35 H           3.0044    0.7751    0.0000 H       1  UNL1        0.0604
     36 H           3.8015    0.7751    0.0000 H       1  UNL1        0.0604
     37 H           4.8890    2.7500    0.0000 H       1  UNL1        0.0275
     38 H           4.2690    3.3700    0.0000 H       1  UNL1        0.0275
     39 H           3.6490    2.7500    0.0000 H       1  UNL1        0.0275
     40 H           2.0000    1.4400    0.0000 H       1  UNL1        0.2098
@<TRIPOS>BOND
     1     1    15    1
     2     1    40    1
     3     2     3    1
     4     2     4    1
     5     2     6    1
     6     2    17    1
     7     3     7    1
     8     3    11    1
     9     3    18    1
    10     4     5    1
    11     4    10    2
    12     5     8    1
    13     5    12    1
    14     5    19    1
    15     6     9    1
    16     6    20    1
    17     6    21    1
    18     7     8    1
    19     7    22    1
    20     7    23    1
    21     8    24    1
    22     8    25    1
    23     9    10    1
    24     9    26    1
    25     9    27    1
    26    10    13    1
    27    11    28    1
    28    11    29    1
    29    11    30    1
    30    12    14    2
    31    12    31    1
    32    13    32    1
    33    13    33    1
    34    13    34    1
    35    14    15    1
    36    14    16    1
    37    15    35    1
    38    15    36    1
    39    16    37    1
    40    16    38    1
    41    16    39    1
