@<TRIPOS>MOLECULE
IMPHY001227
 27 27 0 0 0
SMALL
GASTEIGER

@<TRIPOS>ATOM
      1 O           2.5369    0.2500    0.0000 O.3     1  UNL1       -0.3903
      2 N           5.1350   -0.2500    0.0000 N.3     1  UNL1       -0.3108
      3 C           4.2690    0.2500    0.0000 C.3     1  UNL1        0.0336
      4 C           4.2690    1.2500    0.0000 C.3     1  UNL1       -0.0351
      5 C           5.1350    1.7500    0.0000 C.3     1  UNL1       -0.0504
      6 C           3.4030   -0.2500    0.0000 C.3     1  UNL1        0.0703
      7 C           6.0010    1.2500    0.0000 C.3     1  UNL1       -0.0404
      8 C           6.0010    0.2500    0.0000 C.3     1  UNL1       -0.0038
      9 C           3.4030   -1.2500    0.0000 C.3     1  UNL1       -0.0282
     10 C           2.5369   -1.7500    0.0000 C.3     1  UNL1       -0.0629
     11 H           4.2690   -0.3700    0.0000 H       1  UNL1        0.0486
     12 H           4.0569    1.8326    0.0000 H       1  UNL1        0.0281
     13 H           3.6584    1.1423    0.0000 H       1  UNL1        0.0281
     14 H           3.4030    0.3700    0.0000 H       1  UNL1        0.0609
     15 H           5.5335    2.2250    0.0000 H       1  UNL1        0.0266
     16 H           4.7365    2.2250    0.0000 H       1  UNL1        0.0266
     17 H           6.6116    1.1423    0.0000 H       1  UNL1        0.0277
     18 H           6.2131    1.8326    0.0000 H       1  UNL1        0.0277
     19 H           5.1350   -0.8700    0.0000 H       1  UNL1        0.1223
     20 H           6.2131   -0.3326    0.0000 H       1  UNL1        0.0424
     21 H           6.6116    0.3577    0.0000 H       1  UNL1        0.0424
     22 H           3.6150   -1.8326    0.0000 H       1  UNL1        0.0288
     23 H           4.0135   -1.1423    0.0000 H       1  UNL1        0.0288
     24 H           2.2269   -1.2131    0.0000 H       1  UNL1        0.0231
     25 H           2.0000   -2.0600    0.0000 H       1  UNL1        0.0231
     26 H           2.8469   -2.2869    0.0000 H       1  UNL1        0.0231
     27 H           2.0000   -0.0600    0.0000 H       1  UNL1        0.2098
@<TRIPOS>BOND
     1     1     6    1
     2     1    27    1
     3     2     3    1
     4     2     8    1
     5     2    19    1
     6     3     4    1
     7     3     6    1
     8     3    11    1
     9     4     5    1
    10     4    12    1
    11     4    13    1
    12     5     7    1
    13     5    15    1
    14     5    16    1
    15     6     9    1
    16     6    14    1
    17     7     8    1
    18     7    17    1
    19     7    18    1
    20     8    20    1
    21     8    21    1
    22     9    10    1
    23     9    22    1
    24     9    23    1
    25    10    24    1
    26    10    25    1
    27    10    26    1
