@<TRIPOS>MOLECULE
IMPHY010688
 24 27 0 0 0
SMALL
GASTEIGER

@<TRIPOS>ATOM
      1 C           5.4667   -3.5917    0.0000 C.3     1  UNL1        0.0608
      2 C           6.1667   -3.9792    0.0000 C.2     1  UNL1       -0.0192
      3 C           5.4667   -2.8292    0.0000 C.ar    1  UNL1        0.0179
      4 C           4.8167   -3.9792    0.0000 C.2     1  UNL1        0.0214
      5 C           6.8125   -3.5917    0.0000 C.3     1  UNL1        0.0812
      6 C           6.1667   -4.7250    0.0000 C.2     1  UNL1        0.0386
      7 C           6.1667   -2.4500    0.0000 C.ar    1  UNL1       -0.0208
      8 C           4.8167   -4.7250    0.0000 C.2     1  UNL1        0.1737
      9 C           5.4667   -5.1042    0.0000 C.2     1  UNL1        0.2284
     10 N           7.4792   -3.9792    0.0000 N.3     1  UNL1       -0.2690
     11 C           6.8125   -2.8292    0.0000 C.3     1  UNL1        0.0463
     12 C           4.8167   -2.4500    0.0000 C.ar    1  UNL1        0.1736
     13 C           5.4750   -4.6625    0.0000 C.3     1  UNL1        0.0294
     14 C           7.4625   -4.6625    0.0000 C.3     1  UNL1        0.0733
     15 C           4.8167   -1.6292    0.0000 C.ar    1  UNL1        0.2290
     16 C           6.1667   -1.6292    0.0000 C.ar    1  UNL1       -0.0010
     17 O           5.4667   -5.9167    0.0000 O.2     1  UNL1       -0.2834
     18 C           5.4667   -1.2542    0.0000 C.ar    1  UNL1        0.0449
     19 O           4.1667   -5.1042    0.0000 O.2     1  UNL1       -0.4685
     20 O           4.1667   -2.8292    0.0000 O.3     1  UNL1       -0.4685
     21 O           4.1667   -1.2542    0.0000 O.3     1  UNL1       -0.2833
     22 C           8.1167   -3.5917    0.0000 C.3     1  UNL1        0.0899
     23 C           3.4625   -4.7250    0.0000 C.3     1  UNL1        0.2526
     24 C           3.5125   -2.4542    0.0000 C.3     1  UNL1        0.2526
@<TRIPOS>BOND
     1     1     2    1
     2     1    13    1
     3     3     1    1
     4     4     1    1
     5     5     2    1
     6     5    10    1
     7     6     2    2
     8     6     9    1
     9     7     3   ar
    10     8     4    2
    11     9     8    1
    12    10    14    1
    13    11     5    1
    14    11     7    1
    15    12     3   ar
    16    14    13    1
    17    15    12   ar
    18    16     7   ar
    19    17     9    2
    20    18    15   ar
    21    18    16   ar
    22    19     8    1
    23    20    12    1
    24    21    15    1
    25    22    10    1
    26    23    19    1
    27    24    20    1
