@<TRIPOS>MOLECULE
IMPHY009341
 34 36 0 0 0
SMALL
GASTEIGER

@<TRIPOS>ATOM
      1 O           6.3981   -0.6154    0.0000 O.2     1  UNL1       -0.4542
      2 O           2.8680   -0.6395    0.0000 O.3     1  UNL1       -0.4949
      3 O           4.6497    2.4192    0.0000 O.3     1  UNL1       -0.5058
      4 O           6.3981    2.3846    0.0000 O.2     1  UNL1       -0.2869
      5 O           7.2641   -2.1154    0.0000 O.3     1  UNL1       -0.5059
      6 O          10.7282   -2.1154    0.0000 O.3     1  UNL1       -0.5066
      7 C           5.5320    0.8846    0.0000 C.ar    1  UNL1        0.1055
      8 C           5.5320   -0.1154    0.0000 C.ar    1  UNL1        0.1462
      9 C           7.2641   -0.1154    0.0000 C.ar    1  UNL1        0.1427
     10 C           8.1301   -0.6154    0.0000 C.ar    1  UNL1        0.0590
     11 C           6.3981    1.3846    0.0000 C.ar    1  UNL1        0.1966
     12 C           4.6381    1.4193    0.0000 C.ar    1  UNL1        0.1347
     13 C           7.2641    0.8846    0.0000 C.ar    1  UNL1        0.0289
     14 C           4.6381   -0.6501    0.0000 C.ar    1  UNL1        0.0233
     15 C           3.7320   -0.1362    0.0000 C.ar    1  UNL1        0.1271
     16 C           3.7320    0.9054    0.0000 C.ar    1  UNL1        0.0225
     17 C           8.1301   -1.6154    0.0000 C.ar    1  UNL1        0.1310
     18 C           8.9962   -0.1154    0.0000 C.ar    1  UNL1       -0.0441
     19 C           8.9962   -2.1154    0.0000 C.ar    1  UNL1        0.0220
     20 C           9.8622   -0.6154    0.0000 C.ar    1  UNL1       -0.0193
     21 C           9.8622   -1.6154    0.0000 C.ar    1  UNL1        0.1204
     22 C           2.0000   -0.1429    0.0000 C.3     1  UNL1        0.0788
     23 H           7.8010    1.1946    0.0000 H       1  UNL1        0.0693
     24 H           4.6453   -1.2700    0.0000 H       1  UNL1        0.0691
     25 H           3.1963    1.2175    0.0000 H       1  UNL1        0.0691
     26 H           8.9962    0.5046    0.0000 H       1  UNL1        0.0627
     27 H           8.9962   -2.7354    0.0000 H       1  UNL1        0.0691
     28 H          10.3991   -0.3054    0.0000 H       1  UNL1        0.0654
     29 H           4.1164    2.7354    0.0000 H       1  UNL1        0.2922
     30 H           7.2641   -2.7354    0.0000 H       1  UNL1        0.2922
     31 H           2.3079    0.3952    0.0000 H       1  UNL1        0.0660
     32 H           1.4619    0.1650    0.0000 H       1  UNL1        0.0660
     33 H           1.6921   -0.6810    0.0000 H       1  UNL1        0.0660
     34 H          11.2651   -1.8054    0.0000 H       1  UNL1        0.2921
@<TRIPOS>BOND
     1     1     8   ar
     2     1     9   ar
     3     2    15    1
     4     2    22    1
     5     3    12    1
     6     3    29    1
     7     4    11    2
     8     5    17    1
     9     5    30    1
    10     6    21    1
    11     6    34    1
    12     7     8   ar
    13     7    11   ar
    14     7    12   ar
    15     8    14   ar
    16     9    10    1
    17     9    13   ar
    18    10    17   ar
    19    10    18   ar
    20    11    13   ar
    21    12    16   ar
    22    13    23    1
    23    14    15   ar
    24    14    24    1
    25    15    16   ar
    26    16    25    1
    27    17    19   ar
    28    18    20   ar
    29    18    26    1
    30    19    21   ar
    31    19    27    1
    32    20    21   ar
    33    20    28    1
    34    22    31    1
    35    22    32    1
    36    22    33    1
