@<TRIPOS>MOLECULE
IMPHY012229
 22 23 0 0 0
SMALL
GASTEIGER

@<TRIPOS>ATOM
      1 O           6.9322   -1.2617    0.0000 O.3     1  UNL1       -0.3917
      2 N           4.4202    1.3353    0.0000 N.3     1  UNL1       -0.3104
      3 C           3.9424   -0.6132    0.0000 C.3     1  UNL1        0.0103
      4 C           3.6836    0.3527    0.0000 C.3     1  UNL1        0.0103
      5 C           2.5435   -1.1220    0.0000 C.3     1  UNL1       -0.0360
      6 C           2.2846   -0.1561    0.0000 C.3     1  UNL1       -0.0360
      7 C           5.1634   -1.4789    0.0000 C.3     1  UNL1       -0.0113
      8 C           5.7168    0.0416    0.0000 C.3     1  UNL1       -0.0113
      9 C           5.9925   -0.9197    0.0000 C.3     1  UNL1        0.0581
     10 H           4.1624   -1.4342    0.0000 H       1  UNL1        0.0461
     11 H           3.4636    1.1738    0.0000 H       1  UNL1        0.0461
     12 H           2.7384   -1.7106    0.0000 H       1  UNL1        0.0281
     13 H           1.9495   -1.2998    0.0000 H       1  UNL1        0.0281
     14 H           1.6907   -0.3339    0.0000 H       1  UNL1        0.0281
     15 H           2.0897    0.4325    0.0000 H       1  UNL1        0.0281
     16 H           5.5693   -1.9476    0.0000 H       1  UNL1        0.0305
     17 H           4.7468   -1.9380    0.0000 H       1  UNL1        0.0305
     18 H           5.7219    0.6616    0.0000 H       1  UNL1        0.0305
     19 H           6.3311    0.1254    0.0000 H       1  UNL1        0.0305
     20 H           4.7302    1.8723    0.0000 H       1  UNL1        0.1225
     21 H           6.0680   -1.5350    0.0000 H       1  UNL1        0.0594
     22 H           7.0398   -1.8723    0.0000 H       1  UNL1        0.2098
@<TRIPOS>BOND
     1     1     9    1
     2     1    22    1
     3     2     3    1
     4     2     4    1
     5     2    20    1
     6     3     5    1
     7     3     7    1
     8     3    10    1
     9     4     6    1
    10     4     8    1
    11     4    11    1
    12     5     6    1
    13     5    12    1
    14     5    13    1
    15     6    14    1
    16     6    15    1
    17     7     9    1
    18     7    16    1
    19     7    17    1
    20     8     9    1
    21     8    18    1
    22     8    19    1
    23     9    21    1
