@<TRIPOS>MOLECULE
IMPHY014938
 29 29 0 0 0
SMALL
GASTEIGER

@<TRIPOS>ATOM
      1 O           2.5369    0.7500    0.0000 O.3     1  UNL1       -0.3912
      2 C           4.2690    0.7500    0.0000 C.3     1  UNL1        0.0056
      3 C           4.2690   -1.2500    0.0000 C.3     1  UNL1       -0.0415
      4 C           3.4030    0.2500    0.0000 C.3     1  UNL1        0.0619
      5 C           3.4030   -0.7500    0.0000 C.3     1  UNL1       -0.0237
      6 C           5.1350    0.2500    0.0000 C.3     1  UNL1       -0.0439
      7 C           5.1350   -0.7500    0.0000 C.3     1  UNL1       -0.0498
      8 C           4.2690    1.7500    0.0000 C.2     1  UNL1       -0.0742
      9 C           4.2690   -2.2500    0.0000 C.3     1  UNL1       -0.0623
     10 C           5.1350    2.2500    0.0000 C.3     1  UNL1       -0.0437
     11 C           3.4030    2.2500    0.0000 C.2     1  UNL1       -0.0994
     12 H           4.8059    1.0600    0.0000 H       1  UNL1        0.0370
     13 H           4.8059   -1.5600    0.0000 H       1  UNL1        0.0299
     14 H           3.4030    0.8700    0.0000 H       1  UNL1        0.0599
     15 H           2.7924   -0.6423    0.0000 H       1  UNL1        0.0293
     16 H           3.1909   -1.3326    0.0000 H       1  UNL1        0.0293
     17 H           5.7456    0.1423    0.0000 H       1  UNL1        0.0272
     18 H           5.3471    0.8326    0.0000 H       1  UNL1        0.0272
     19 H           5.3471   -1.3326    0.0000 H       1  UNL1        0.0268
     20 H           5.7456   -0.6423    0.0000 H       1  UNL1        0.0268
     21 H           3.6490   -2.2500    0.0000 H       1  UNL1        0.0232
     22 H           4.2690   -2.8700    0.0000 H       1  UNL1        0.0232
     23 H           4.8890   -2.2500    0.0000 H       1  UNL1        0.0232
     24 H           2.0000    0.4400    0.0000 H       1  UNL1        0.2098
     25 H           5.4450    1.7131    0.0000 H       1  UNL1        0.0274
     26 H           5.6720    2.5600    0.0000 H       1  UNL1        0.0274
     27 H           4.8250    2.7869    0.0000 H       1  UNL1        0.0274
     28 H           3.4030    2.8700    0.0000 H       1  UNL1        0.0534
     29 H           2.8660    1.9400    0.0000 H       1  UNL1        0.0534
@<TRIPOS>BOND
     1     4     1    1
     2     1    24    1
     3     2     4    1
     4     2     6    1
     5     2     8    1
     6     2    12    1
     7     3     5    1
     8     3     7    1
     9     3     9    1
    10     3    13    1
    11     4     5    1
    12     4    14    1
    13     5    15    1
    14     5    16    1
    15     6     7    1
    16     6    17    1
    17     6    18    1
    18     7    19    1
    19     7    20    1
    20     8    10    1
    21     8    11    2
    22     9    21    1
    23     9    22    1
    24     9    23    1
    25    10    25    1
    26    10    26    1
    27    10    27    1
    28    11    28    1
    29    11    29    1
