@<TRIPOS>MOLECULE
IMPHY016948
 32 32 0 0 0
SMALL
GASTEIGER

@<TRIPOS>ATOM
      1 O           3.7320    0.7500    0.0000 O.3     1  UNL1       -0.3513
      2 O           4.5981    2.2500    0.0000 O.3     1  UNL1       -0.3519
      3 C           2.8660   -0.7500    0.0000 C.3     1  UNL1       -0.0040
      4 C           3.7320   -0.2500    0.0000 C.3     1  UNL1        0.0546
      5 C           4.5981    1.2500    0.0000 C.3     1  UNL1        0.1563
      6 C           2.8660   -1.7500    0.0000 C.ar    1  UNL1       -0.0452
      7 C           5.4641    0.7500    0.0000 C.3     1  UNL1       -0.0136
      8 C           3.7320   -2.2500    0.0000 C.ar    1  UNL1       -0.0585
      9 C           2.0000   -2.2500    0.0000 C.ar    1  UNL1       -0.0585
     10 C           5.4641    2.7500    0.0000 C.3     1  UNL1        0.0478
     11 C           3.7320   -3.2500    0.0000 C.ar    1  UNL1       -0.0615
     12 C           2.0000   -3.2500    0.0000 C.ar    1  UNL1       -0.0615
     13 C           2.8660   -3.7500    0.0000 C.ar    1  UNL1       -0.0617
     14 C           5.4641    3.7500    0.0000 C.3     1  UNL1       -0.0415
     15 H           2.6540   -0.1674    0.0000 H       1  UNL1        0.0335
     16 H           2.2554   -0.8577    0.0000 H       1  UNL1        0.0335
     17 H           3.9441   -0.8326    0.0000 H       1  UNL1        0.0564
     18 H           4.3426   -0.1423    0.0000 H       1  UNL1        0.0564
     19 H           4.5981    0.4000    0.0000 H       1  UNL1        0.0906
     20 H           5.1541    0.2131    0.0000 H       1  UNL1        0.0278
     21 H           6.0010    0.4400    0.0000 H       1  UNL1        0.0278
     22 H           5.7741    1.2869    0.0000 H       1  UNL1        0.0278
     23 H           4.2690   -1.9400    0.0000 H       1  UNL1        0.0620
     24 H           1.4631   -1.9400    0.0000 H       1  UNL1        0.0620
     25 H           5.6762    2.1674    0.0000 H       1  UNL1        0.0558
     26 H           6.0747    2.8577    0.0000 H       1  UNL1        0.0558
     27 H           4.2690   -3.5600    0.0000 H       1  UNL1        0.0618
     28 H           1.4631   -3.5600    0.0000 H       1  UNL1        0.0618
     29 H           2.8660   -4.3700    0.0000 H       1  UNL1        0.0618
     30 H           6.0841    3.7500    0.0000 H       1  UNL1        0.0252
     31 H           5.4641    4.3700    0.0000 H       1  UNL1        0.0252
     32 H           4.8441    3.7500    0.0000 H       1  UNL1        0.0252
@<TRIPOS>BOND
     1     1     4    1
     2     1     5    1
     3     2     5    1
     4     2    10    1
     5     3     4    1
     6     3     6    1
     7     3    15    1
     8     3    16    1
     9     4    17    1
    10     4    18    1
    11     5     7    1
    12     5    19    1
    13     6     8   ar
    14     6     9   ar
    15     7    20    1
    16     7    21    1
    17     7    22    1
    18     8    11   ar
    19     8    23    1
    20     9    12   ar
    21     9    24    1
    22    10    14    1
    23    10    25    1
    24    10    26    1
    25    11    13   ar
    26    11    27    1
    27    12    13   ar
    28    12    28    1
    29    13    29    1
    30    14    30    1
    31    14    31    1
    32    14    32    1
