@<TRIPOS>MOLECULE
IMPHY006074
 90 95 0 0 0
SMALL
GASTEIGER

@<TRIPOS>ATOM
      1 O           6.7852    2.8514    0.0000 O.3     1  UNL1       -0.3586
      2 O           9.5679    1.9823    0.0000 O.3     1  UNL1       -0.4569
      3 O           5.1720    1.4487    0.0000 O.3     1  UNL1       -0.3888
      4 O           9.5620   -0.0795    0.0000 O.3     1  UNL1       -0.4539
      5 O           5.1643    3.4487    0.0000 O.3     1  UNL1       -0.3858
      6 O           6.8896    5.1874    0.0000 O.3     1  UNL1       -0.4659
      7 O           5.3930    4.3156    0.0000 O.2     1  UNL1       -0.2475
      8 O          10.4016    3.5347    0.0000 O.2     1  UNL1       -0.2508
      9 O           6.8671   -2.7415    0.0000 O.2     1  UNL1       -0.4574
     10 O           5.0597   -1.6887    0.0000 O.2     1  UNL1       -0.2888
     11 O          10.4164    1.4272    0.0000 O.2     1  UNL1       -0.2456
     12 O           5.1350   -2.7415    0.0000 O.3     1  UNL1       -0.3313
     13 O           6.8671   -4.7415    0.0000 O.3     1  UNL1       -0.3829
     14 O           5.1350   -5.7415    0.0000 O.3     1  UNL1       -0.3864
     15 O           3.4030   -4.7415    0.0000 O.3     1  UNL1       -0.3865
     16 O           2.5369   -3.2415    0.0000 O.3     1  UNL1       -0.3924
     17 C           7.7681    1.9587    0.0000 C.3     1  UNL1        0.0469
     18 C           6.9040    1.4554    0.0000 C.3     1  UNL1        0.0056
     19 C           7.7643    2.9587    0.0000 C.3     1  UNL1        0.0228
     20 C           6.8920    0.4138    0.0000 C.3     1  UNL1       -0.0089
     21 C           8.6801    1.4554    0.0000 C.3     1  UNL1        0.1487
     22 C           6.8963    3.4554    0.0000 C.3     1  UNL1        0.1973
     23 C           6.0361    1.9520    0.0000 C.3     1  UNL1        0.0884
     24 C           7.7920   -0.1105    0.0000 C.3     1  UNL1        0.0305
     25 C           7.1879    2.1601    0.0000 C.3     1  UNL1        0.0591
     26 C           8.6921    0.4138    0.0000 C.3     1  UNL1        0.1477
     27 C           6.0322    2.9520    0.0000 C.3     1  UNL1        0.1209
     28 C           8.6397    3.5060    0.0000 C.3     1  UNL1        0.0517
     29 C           5.9421   -0.1105    0.0000 C.3     1  UNL1        0.0199
     30 C           5.9079    0.5913    0.0000 C.3     1  UNL1       -0.0581
     31 C           7.8046   -1.1954    0.0000 C.2     1  UNL1       -0.0202
     32 C           6.3930    4.3195    0.0000 C.2     1  UNL1        0.3422
     33 C           9.5476    3.0145    0.0000 C.2     1  UNL1        0.3079
     34 C           5.9295   -1.1954    0.0000 C.2     1  UNL1        0.1979
     35 C           6.8671   -1.7415    0.0000 C.2     1  UNL1        0.1656
     36 C           8.6744   -1.6887    0.0000 C.3     1  UNL1       -0.0395
     37 C          10.4241    0.4272    0.0000 C.2     1  UNL1        0.3323
     38 C           6.3863    6.0515    0.0000 C.3     1  UNL1        0.0818
     39 C           6.0010   -3.2415    0.0000 C.3     1  UNL1        0.2309
     40 C          11.2940   -0.0661    0.0000 C.2     1  UNL1        0.0212
     41 C           6.0010   -4.2415    0.0000 C.3     1  UNL1        0.1454
     42 C           5.1350   -4.7415    0.0000 C.3     1  UNL1        0.1152
     43 C          12.1561    0.4405    0.0000 C.2     1  UNL1       -0.0690
     44 C           4.2690   -3.2415    0.0000 C.3     1  UNL1        0.1140
     45 C           4.2690   -4.2415    0.0000 C.3     1  UNL1        0.1120
     46 C          13.0260   -0.0528    0.0000 C.3     1  UNL1       -0.0435
     47 C          12.1484    1.4405    0.0000 C.3     1  UNL1       -0.0435
     48 C           3.4030   -2.7415    0.0000 C.3     1  UNL1        0.0731
     49 H           6.1696    1.0276    0.0000 H       1  UNL1        0.0339
     50 H           7.9086    3.7964    0.0000 H       1  UNL1        0.0348
     51 H           9.4212    1.0391    0.0000 H       1  UNL1        0.0778
     52 H           5.4980    2.2600    0.0000 H       1  UNL1        0.0623
     53 H           8.5314   -0.5298    0.0000 H       1  UNL1        0.0389
     54 H           6.5857    2.0125    0.0000 H       1  UNL1        0.0567
     55 H           7.1589    1.5408    0.0000 H       1  UNL1        0.0567
     56 H           9.2260    0.7290    0.0000 H       1  UNL1        0.0778
     57 H           6.0298    3.5720    0.0000 H       1  UNL1        0.0654
     58 H           9.0238    3.9927    0.0000 H       1  UNL1        0.0381
     59 H           8.2259    3.9677    0.0000 H       1  UNL1        0.0381
     60 H           5.7398    0.4756    0.0000 H       1  UNL1        0.0352
     61 H           5.3300   -0.2095    0.0000 H       1  UNL1        0.0352
     62 H           6.0179    1.2014    0.0000 H       1  UNL1        0.0235
     63 H           5.2977    0.7013    0.0000 H       1  UNL1        0.0235
     64 H           5.7978   -0.0189    0.0000 H       1  UNL1        0.0235
     65 H           4.6339    1.7566    0.0000 H       1  UNL1        0.2099
     66 H           4.6286    3.1366    0.0000 H       1  UNL1        0.2100
     67 H           8.3686   -2.2280    0.0000 H       1  UNL1        0.0276
     68 H           9.2138   -1.9946    0.0000 H       1  UNL1        0.0276
     69 H           8.9803   -1.1494    0.0000 H       1  UNL1        0.0276
     70 H           6.9220    6.3636    0.0000 H       1  UNL1        0.0661
     71 H           6.0742    6.5872    0.0000 H       1  UNL1        0.0661
     72 H           5.8506    5.7394    0.0000 H       1  UNL1        0.0661
     73 H           6.0010   -2.6215    0.0000 H       1  UNL1        0.1084
     74 H          11.2987   -0.6861    0.0000 H       1  UNL1        0.0688
     75 H           6.0010   -4.8615    0.0000 H       1  UNL1        0.0683
     76 H           4.5981   -5.0515    0.0000 H       1  UNL1        0.0648
     77 H           4.2690   -2.6215    0.0000 H       1  UNL1        0.0647
     78 H           3.7320   -3.9315    0.0000 H       1  UNL1        0.0647
     79 H           6.8671   -5.3615    0.0000 H       1  UNL1        0.2102
     80 H          12.7201   -0.5921    0.0000 H       1  UNL1        0.0274
     81 H          13.5653   -0.3586    0.0000 H       1  UNL1        0.0274
     82 H          13.3318    0.4865    0.0000 H       1  UNL1        0.0274
     83 H          12.7684    1.4453    0.0000 H       1  UNL1        0.0274
     84 H          12.1436    2.0605    0.0000 H       1  UNL1        0.0274
     85 H          11.5284    1.4357    0.0000 H       1  UNL1        0.0274
     86 H           3.8015   -2.2666    0.0000 H       1  UNL1        0.0584
     87 H           3.0044   -2.2666    0.0000 H       1  UNL1        0.0584
     88 H           4.5981   -6.0515    0.0000 H       1  UNL1        0.2100
     89 H           3.4030   -5.3615    0.0000 H       1  UNL1        0.2100
     90 H           2.0000   -2.9315    0.0000 H       1  UNL1        0.2095
@<TRIPOS>BOND
     1     1    22    1
     2     1    25    1
     3     2    21    1
     4     2    33    1
     5    23     3    1
     6     3    65    1
     7    26     4    1
     8     4    37    1
     9    27     5    1
    10     5    66    1
    11     6    32    1
    12     6    38    1
    13     7    32    2
    14     8    33    2
    15     9    35    1
    16    39     9    1
    17    10    34    2
    18    11    37    2
    19    12    39    1
    20    12    44    1
    21    41    13    1
    22    13    79    1
    23    42    14    1
    24    14    88    1
    25    45    15    1
    26    15    89    1
    27    16    48    1
    28    16    90    1
    29    17    18    1
    30    17    19    1
    31    17    21    1
    32    17    25    1
    33    18    20    1
    34    18    23    1
    35    18    49    1
    36    19    22    1
    37    19    28    1
    38    19    50    1
    39    20    24    1
    40    20    29    1
    41    20    30    1
    42    21    26    1
    43    21    51    1
    44    22    27    1
    45    22    32    1
    46    23    27    1
    47    23    52    1
    48    24    26    1
    49    24    31    1
    50    24    53    1
    51    25    54    1
    52    25    55    1
    53    26    56    1
    54    27    57    1
    55    28    33    1
    56    28    58    1
    57    28    59    1
    58    29    34    1
    59    29    60    1
    60    29    61    1
    61    30    62    1
    62    30    63    1
    63    30    64    1
    64    31    35    2
    65    31    36    1
    66    34    35    1
    67    36    67    1
    68    36    68    1
    69    36    69    1
    70    37    40    1
    71    38    70    1
    72    38    71    1
    73    38    72    1
    74    39    41    1
    75    39    73    1
    76    40    43    2
    77    40    74    1
    78    41    42    1
    79    41    75    1
    80    42    45    1
    81    42    76    1
    82    43    46    1
    83    43    47    1
    84    44    45    1
    85    44    48    1
    86    44    77    1
    87    45    78    1
    88    46    80    1
    89    46    81    1
    90    46    82    1
    91    47    83    1
    92    47    84    1
    93    47    85    1
    94    48    86    1
    95    48    87    1
