@<TRIPOS>MOLECULE
IMPHY010845
 97 101 0 0 0
SMALL
GASTEIGER

@<TRIPOS>ATOM
      1 O           6.0010   -1.2500    0.0000 O.3     1  UNL1       -0.3389
      2 O           4.2690   -1.2500    0.0000 O.3     1  UNL1       -0.3431
      3 O           6.0010   -3.2500    0.0000 O.3     1  UNL1       -0.3378
      4 O           6.0010    1.7500    0.0000 O.3     1  UNL1       -0.3394
      5 O           7.7331   -0.2500    0.0000 O.3     1  UNL1       -0.4528
      6 O           4.2690   -4.2500    0.0000 O.3     1  UNL1       -0.3864
      7 O           2.5369   -3.2500    0.0000 O.3     1  UNL1       -0.3866
      8 O           4.2690   -0.2500    0.0000 O.3     1  UNL1       -0.3841
      9 O           5.1350   -4.7500    0.0000 O.3     1  UNL1       -0.3461
     10 O           4.2690    1.7500    0.0000 O.3     1  UNL1       -0.3484
     11 O           7.7331   -4.2500    0.0000 O.3     1  UNL1       -0.3841
     12 O           7.7331    2.7500    0.0000 O.3     1  UNL1       -0.3923
     13 O           7.7331   -6.2500    0.0000 O.3     1  UNL1       -0.3864
     14 O           6.0010   -7.2500    0.0000 O.3     1  UNL1       -0.3869
     15 O           8.5991    1.2500    0.0000 O.2     1  UNL1       -0.2456
     16 O           5.1350    6.2500    0.0000 O.3     1  UNL1       -0.5033
     17 O           3.4030    7.2500    0.0000 O.3     1  UNL1       -0.5033
     18 O          12.0632   -2.7500    0.0000 O.3     1  UNL1       -0.5033
     19 O          13.7953   -1.7500    0.0000 O.3     1  UNL1       -0.5033
     20 C           5.1350   -2.7500    0.0000 C.3     1  UNL1        0.1406
     21 C           6.0010   -0.2500    0.0000 C.3     1  UNL1        0.1316
     22 C           5.1350   -1.7500    0.0000 C.3     1  UNL1        0.1887
     23 C           4.2690   -3.2500    0.0000 C.3     1  UNL1        0.1143
     24 C           6.8671    0.2500    0.0000 C.3     1  UNL1        0.1602
     25 C           3.4030   -2.7500    0.0000 C.3     1  UNL1        0.1095
     26 C           5.1350    0.2500    0.0000 C.3     1  UNL1        0.1355
     27 C           3.4030   -1.7500    0.0000 C.3     1  UNL1        0.0873
     28 C           6.8671    1.2500    0.0000 C.3     1  UNL1        0.1240
     29 C           5.1350    1.2500    0.0000 C.3     1  UNL1        0.1880
     30 C           6.0010   -4.2500    0.0000 C.3     1  UNL1        0.1881
     31 C           6.8671   -4.7500    0.0000 C.3     1  UNL1        0.1341
     32 C           7.7331    1.7500    0.0000 C.3     1  UNL1        0.0741
     33 C           2.5369   -1.2500    0.0000 C.3     1  UNL1       -0.0361
     34 C           6.8671   -5.7500    0.0000 C.3     1  UNL1        0.1137
     35 C           6.0010   -6.2500    0.0000 C.3     1  UNL1        0.1069
     36 C           5.1350   -5.7500    0.0000 C.3     1  UNL1        0.0792
     37 C           4.2690    2.7500    0.0000 C.3     1  UNL1        0.0547
     38 C           8.5991    0.2500    0.0000 C.2     1  UNL1        0.3324
     39 C           3.4030    3.2500    0.0000 C.3     1  UNL1       -0.0039
     40 C           9.4651   -0.2500    0.0000 C.2     1  UNL1        0.0231
     41 C           3.4030    4.2500    0.0000 C.ar    1  UNL1       -0.0415
     42 C          10.3312    0.2500    0.0000 C.2     1  UNL1       -0.0477
     43 C           4.2690    4.7500    0.0000 C.ar    1  UNL1       -0.0133
     44 C           2.5369    4.7500    0.0000 C.ar    1  UNL1       -0.0548
     45 C           4.2690    5.7500    0.0000 C.ar    1  UNL1        0.1585
     46 C          11.1972   -0.2500    0.0000 C.ar    1  UNL1       -0.0211
     47 C           2.5369    5.7500    0.0000 C.ar    1  UNL1       -0.0163
     48 C           3.4030    6.2500    0.0000 C.ar    1  UNL1        0.1582
     49 C          11.1972   -1.2500    0.0000 C.ar    1  UNL1       -0.0094
     50 C          12.0632    0.2500    0.0000 C.ar    1  UNL1       -0.0509
     51 C          12.0632   -1.7500    0.0000 C.ar    1  UNL1        0.1588
     52 C          12.9292   -0.2500    0.0000 C.ar    1  UNL1       -0.0160
     53 C          12.9292   -1.2500    0.0000 C.ar    1  UNL1        0.1582
     54 H           5.1350   -3.3700    0.0000 H       1  UNL1        0.0675
     55 H           6.5380   -0.5600    0.0000 H       1  UNL1        0.0663
     56 H           5.1350   -1.1300    0.0000 H       1  UNL1        0.0938
     57 H           3.7320   -3.5600    0.0000 H       1  UNL1        0.0648
     58 H           7.4040    0.5600    0.0000 H       1  UNL1        0.0788
     59 H           2.8660   -2.4400    0.0000 H       1  UNL1        0.0646
     60 H           5.1350   -0.3700    0.0000 H       1  UNL1        0.0671
     61 H           3.4030   -1.1300    0.0000 H       1  UNL1        0.0621
     62 H           6.8671    1.8700    0.0000 H       1  UNL1        0.0658
     63 H           5.1350    1.8700    0.0000 H       1  UNL1        0.0937
     64 H           6.5380   -3.9400    0.0000 H       1  UNL1        0.0937
     65 H           7.4040   -5.0600    0.0000 H       1  UNL1        0.0671
     66 H           7.9451    1.1674    0.0000 H       1  UNL1        0.0584
     67 H           8.3437    1.8577    0.0000 H       1  UNL1        0.0584
     68 H           2.8469   -0.7131    0.0000 H       1  UNL1        0.0255
     69 H           2.0000   -0.9400    0.0000 H       1  UNL1        0.0255
     70 H           2.2269   -1.7869    0.0000 H       1  UNL1        0.0255
     71 H           6.8671   -6.3700    0.0000 H       1  UNL1        0.0647
     72 H           5.4641   -6.5600    0.0000 H       1  UNL1        0.0643
     73 H           3.7320   -4.5600    0.0000 H       1  UNL1        0.2100
     74 H           4.5244   -5.6423    0.0000 H       1  UNL1        0.0587
     75 H           4.9230   -6.3326    0.0000 H       1  UNL1        0.0587
     76 H           2.0000   -2.9400    0.0000 H       1  UNL1        0.2100
     77 H           3.7320    0.0600    0.0000 H       1  UNL1        0.2101
     78 H           4.8796    2.6423    0.0000 H       1  UNL1        0.0564
     79 H           4.4810    3.3326    0.0000 H       1  UNL1        0.0564
     80 H           8.2700   -4.5600    0.0000 H       1  UNL1        0.2101
     81 H           8.2700    3.0600    0.0000 H       1  UNL1        0.2095
     82 H           7.7331   -6.8700    0.0000 H       1  UNL1        0.2100
     83 H           5.4641   -7.5600    0.0000 H       1  UNL1        0.2100
     84 H           2.7924    3.3577    0.0000 H       1  UNL1        0.0335
     85 H           3.1909    2.6674    0.0000 H       1  UNL1        0.0335
     86 H           9.4651   -0.8700    0.0000 H       1  UNL1        0.0689
     87 H          10.3312    0.8700    0.0000 H       1  UNL1        0.0626
     88 H           4.8059    4.4400    0.0000 H       1  UNL1        0.0658
     89 H           2.0000    4.4400    0.0000 H       1  UNL1        0.0621
     90 H           2.0000    6.0600    0.0000 H       1  UNL1        0.0655
     91 H          10.6603   -1.5600    0.0000 H       1  UNL1        0.0661
     92 H          12.0632    0.8700    0.0000 H       1  UNL1        0.0625
     93 H           5.1350    6.8700    0.0000 H       1  UNL1        0.2923
     94 H          13.4662    0.0600    0.0000 H       1  UNL1        0.0655
     95 H           2.8660    7.5600    0.0000 H       1  UNL1        0.2923
     96 H          12.6002   -3.0600    0.0000 H       1  UNL1        0.2923
     97 H          14.3322   -1.4400    0.0000 H       1  UNL1        0.2923
@<TRIPOS>BOND
     1    21     1    1
     2    22     1    1
     3     2    22    1
     4     2    27    1
     5    20     3    1
     6    30     3    1
     7     4    28    1
     8     4    29    1
     9    24     5    1
    10     5    38    1
    11    23     6    1
    12     6    73    1
    13    25     7    1
    14     7    76    1
    15    26     8    1
    16     8    77    1
    17     9    30    1
    18     9    36    1
    19    29    10    1
    20    10    37    1
    21    31    11    1
    22    11    80    1
    23    12    32    1
    24    12    81    1
    25    34    13    1
    26    13    82    1
    27    35    14    1
    28    14    83    1
    29    15    38    2
    30    16    45    1
    31    16    93    1
    32    17    48    1
    33    17    95    1
    34    18    51    1
    35    18    96    1
    36    19    53    1
    37    19    97    1
    38    20    22    1
    39    20    23    1
    40    20    54    1
    41    21    24    1
    42    21    26    1
    43    21    55    1
    44    22    56    1
    45    23    25    1
    46    23    57    1
    47    24    28    1
    48    24    58    1
    49    25    27    1
    50    25    59    1
    51    26    29    1
    52    26    60    1
    53    27    33    1
    54    27    61    1
    55    28    32    1
    56    28    62    1
    57    29    63    1
    58    30    31    1
    59    30    64    1
    60    31    34    1
    61    31    65    1
    62    32    66    1
    63    32    67    1
    64    33    68    1
    65    33    69    1
    66    33    70    1
    67    34    35    1
    68    34    71    1
    69    35    36    1
    70    35    72    1
    71    36    74    1
    72    36    75    1
    73    37    39    1
    74    37    78    1
    75    37    79    1
    76    38    40    1
    77    39    41    1
    78    39    84    1
    79    39    85    1
    80    40    42    2
    81    40    86    1
    82    41    43   ar
    83    41    44   ar
    84    42    46    1
    85    42    87    1
    86    43    45   ar
    87    43    88    1
    88    44    47   ar
    89    44    89    1
    90    45    48   ar
    91    46    49   ar
    92    46    50   ar
    93    47    48   ar
    94    47    90    1
    95    49    51   ar
    96    49    91    1
    97    50    52   ar
    98    50    92    1
    99    51    53   ar
   100    52    53   ar
   101    52    94    1
