@<TRIPOS>MOLECULE
IMPHY010256
 82 85 0 0 0
SMALL
GASTEIGER

@<TRIPOS>ATOM
      1 O           8.5991    2.0000    0.0000 O.2     1  UNL1       -0.2702
      2 O          10.3312   -2.0000    0.0000 O.2     1  UNL1       -0.2702
      3 O          12.0632    4.0000    0.0000 O.3     1  UNL1       -0.4914
      4 O           6.8671   -4.0000    0.0000 O.3     1  UNL1       -0.4914
      5 O           2.5369    2.5000    0.0000 O.3     1  UNL1       -0.5068
      6 O          16.3933   -2.5000    0.0000 O.3     1  UNL1       -0.5068
      7 O          10.3312    5.0000    0.0000 O.3     1  UNL1       -0.5033
      8 O           8.5991   -5.0000    0.0000 O.3     1  UNL1       -0.5033
      9 N           7.7331    0.5000    0.0000 N.am    1  UNL1       -0.3110
     10 N          11.1972   -0.5000    0.0000 N.am    1  UNL1       -0.3110
     11 C           6.0010    0.5000    0.0000 C.3     1  UNL1       -0.0120
     12 C          12.9292   -0.5000    0.0000 C.3     1  UNL1       -0.0120
     13 C          12.0632   -1.0000    0.0000 C.3     1  UNL1        0.0159
     14 C           6.8671    1.0000    0.0000 C.3     1  UNL1        0.0159
     15 C           9.4651    0.5000    0.0000 C.2     1  UNL1        0.0493
     16 C           9.4651   -0.5000    0.0000 C.2     1  UNL1        0.0493
     17 C           5.1350    1.0000    0.0000 C.ar    1  UNL1       -0.0457
     18 C          13.7953   -1.0000    0.0000 C.ar    1  UNL1       -0.0457
     19 C           8.5991    1.0000    0.0000 C.2     1  UNL1        0.2448
     20 C          10.3312   -1.0000    0.0000 C.2     1  UNL1        0.2448
     21 C           8.5991   -1.0000    0.0000 C.2     1  UNL1       -0.0416
     22 C          10.3312    1.0000    0.0000 C.2     1  UNL1       -0.0416
     23 C           8.5991   -2.0000    0.0000 C.ar    1  UNL1       -0.0206
     24 C          10.3312    2.0000    0.0000 C.ar    1  UNL1       -0.0206
     25 C           5.1350    2.0000    0.0000 C.ar    1  UNL1       -0.0551
     26 C          13.7953   -2.0000    0.0000 C.ar    1  UNL1       -0.0551
     27 C           4.2690    0.5000    0.0000 C.ar    1  UNL1       -0.0551
     28 C          14.6613   -0.5000    0.0000 C.ar    1  UNL1       -0.0551
     29 C          11.1972    2.5000    0.0000 C.ar    1  UNL1       -0.0091
     30 C           7.7331   -2.5000    0.0000 C.ar    1  UNL1       -0.0091
     31 C           9.4651    2.5000    0.0000 C.ar    1  UNL1       -0.0509
     32 C           9.4651   -2.5000    0.0000 C.ar    1  UNL1       -0.0509
     33 C           4.2690    2.5000    0.0000 C.ar    1  UNL1       -0.0199
     34 C          14.6613   -2.5000    0.0000 C.ar    1  UNL1       -0.0199
     35 C           3.4030    1.0000    0.0000 C.ar    1  UNL1       -0.0199
     36 C          15.5273   -1.0000    0.0000 C.ar    1  UNL1       -0.0199
     37 C           3.4030    2.0000    0.0000 C.ar    1  UNL1        0.1169
     38 C          15.5273   -2.0000    0.0000 C.ar    1  UNL1        0.1169
     39 C          11.1972    3.5000    0.0000 C.ar    1  UNL1        0.1618
     40 C           7.7331   -3.5000    0.0000 C.ar    1  UNL1        0.1618
     41 C           9.4651    3.5000    0.0000 C.ar    1  UNL1       -0.0160
     42 C           9.4651   -3.5000    0.0000 C.ar    1  UNL1       -0.0160
     43 C          10.3312    4.0000    0.0000 C.ar    1  UNL1        0.1585
     44 C           8.5991   -4.0000    0.0000 C.ar    1  UNL1        0.1585
     45 C          12.0632    5.0000    0.0000 C.3     1  UNL1        0.0790
     46 C           6.0010   -3.5000    0.0000 C.3     1  UNL1        0.0790
     47 H           5.6025    0.0251    0.0000 H       1  UNL1        0.0328
     48 H           6.3996    0.0251    0.0000 H       1  UNL1        0.0328
     49 H          13.3278   -0.0251    0.0000 H       1  UNL1        0.0328
     50 H          12.5307   -0.0251    0.0000 H       1  UNL1        0.0328
     51 H          11.6647   -1.4750    0.0000 H       1  UNL1        0.0465
     52 H          12.4617   -1.4750    0.0000 H       1  UNL1        0.0465
     53 H           7.2656    1.4750    0.0000 H       1  UNL1        0.0465
     54 H           6.4685    1.4750    0.0000 H       1  UNL1        0.0465
     55 H           7.7331   -0.1200    0.0000 H       1  UNL1        0.1490
     56 H          11.1972    0.1200    0.0000 H       1  UNL1        0.1490
     57 H          10.8681    0.6900    0.0000 H       1  UNL1        0.0631
     58 H           8.0622   -0.6900    0.0000 H       1  UNL1        0.0631
     59 H           5.6720    2.3100    0.0000 H       1  UNL1        0.0621
     60 H          13.2583   -2.3100    0.0000 H       1  UNL1        0.0621
     61 H           4.2690   -0.1200    0.0000 H       1  UNL1        0.0621
     62 H          14.6613    0.1200    0.0000 H       1  UNL1        0.0621
     63 H          11.7341    2.1900    0.0000 H       1  UNL1        0.0661
     64 H           7.1962   -2.1900    0.0000 H       1  UNL1        0.0661
     65 H           8.9282    2.1900    0.0000 H       1  UNL1        0.0625
     66 H          10.0021   -2.1900    0.0000 H       1  UNL1        0.0625
     67 H          14.6613   -3.1200    0.0000 H       1  UNL1        0.0654
     68 H           4.2690    3.1200    0.0000 H       1  UNL1        0.0654
     69 H          16.0643   -0.6900    0.0000 H       1  UNL1        0.0654
     70 H           2.8660    0.6900    0.0000 H       1  UNL1        0.0654
     71 H           8.9282    3.8100    0.0000 H       1  UNL1        0.0655
     72 H          10.0021   -3.8100    0.0000 H       1  UNL1        0.0655
     73 H           2.0000    2.1900    0.0000 H       1  UNL1        0.2921
     74 H          16.9303   -2.1900    0.0000 H       1  UNL1        0.2921
     75 H           9.7942    5.3100    0.0000 H       1  UNL1        0.2923
     76 H           9.1360   -5.3100    0.0000 H       1  UNL1        0.2923
     77 H           6.3110   -2.9631    0.0000 H       1  UNL1        0.0660
     78 H           5.4641   -3.1900    0.0000 H       1  UNL1        0.0660
     79 H           5.6910   -4.0369    0.0000 H       1  UNL1        0.0660
     80 H          12.6832    5.0000    0.0000 H       1  UNL1        0.0660
     81 H          12.0632    5.6200    0.0000 H       1  UNL1        0.0660
     82 H          11.4432    5.0000    0.0000 H       1  UNL1        0.0660
@<TRIPOS>BOND
     1     1    19    2
     2     2    20    2
     3     3    39    1
     4     3    45    1
     5     4    40    1
     6     4    46    1
     7     5    37    1
     8     5    73    1
     9     6    38    1
    10     6    74    1
    11     7    43    1
    12     7    75    1
    13     8    44    1
    14     8    76    1
    15     9    14    1
    16     9    19   am
    17     9    55    1
    18    10    13    1
    19    10    20   am
    20    10    56    1
    21    11    14    1
    22    11    17    1
    23    11    47    1
    24    11    48    1
    25    12    13    1
    26    12    18    1
    27    12    49    1
    28    12    50    1
    29    13    51    1
    30    13    52    1
    31    14    53    1
    32    14    54    1
    33    15    16    1
    34    15    19    1
    35    15    22    2
    36    16    20    1
    37    16    21    2
    38    17    25   ar
    39    17    27   ar
    40    18    26   ar
    41    18    28   ar
    42    21    23    1
    43    21    58    1
    44    22    24    1
    45    22    57    1
    46    23    30   ar
    47    23    32   ar
    48    24    29   ar
    49    24    31   ar
    50    25    33   ar
    51    25    59    1
    52    26    34   ar
    53    26    60    1
    54    27    35   ar
    55    27    61    1
    56    28    36   ar
    57    28    62    1
    58    29    39   ar
    59    29    63    1
    60    30    40   ar
    61    30    64    1
    62    31    41   ar
    63    31    65    1
    64    32    42   ar
    65    32    66    1
    66    33    37   ar
    67    33    68    1
    68    34    38   ar
    69    34    67    1
    70    35    37   ar
    71    35    70    1
    72    36    38   ar
    73    36    69    1
    74    39    43   ar
    75    40    44   ar
    76    41    43   ar
    77    41    71    1
    78    42    44   ar
    79    42    72    1
    80    45    80    1
    81    45    81    1
    82    45    82    1
    83    46    77    1
    84    46    78    1
    85    46    79    1
