@<TRIPOS>MOLECULE
IMPHY009235
 37 39 0 0 0
SMALL
GASTEIGER

@<TRIPOS>ATOM
      1 O           6.0682   -0.0950    0.0000 O.3     1  UNL1       -0.4804
      2 O           7.8003    1.9050    0.0000 O.3     1  UNL1       -0.3798
      3 O           6.0682    2.9050    0.0000 O.2     1  UNL1       -0.2890
      4 O          10.3984   -1.5950    0.0000 O.3     1  UNL1       -0.4885
      5 O          10.3984    0.4050    0.0000 O.3     1  UNL1       -0.5032
      6 O           8.6663   -2.5950    0.0000 O.3     1  UNL1       -0.5032
      7 O           2.5381   -0.1192    0.0000 O.3     1  UNL1       -0.5066
      8 C           6.9343    0.4050    0.0000 C.3     1  UNL1        0.1583
      9 C           6.9343    1.4050    0.0000 C.3     1  UNL1        0.1583
     10 C           7.8003   -0.0950    0.0000 C.ar    1  UNL1        0.0027
     11 C           6.0682    1.9050    0.0000 C.2     1  UNL1        0.1988
     12 C           5.2022    1.4050    0.0000 C.ar    1  UNL1        0.0620
     13 C           5.2022    0.4050    0.0000 C.ar    1  UNL1        0.1355
     14 C           7.8003   -1.0950    0.0000 C.ar    1  UNL1       -0.0095
     15 C           8.6663    0.4050    0.0000 C.ar    1  UNL1       -0.0095
     16 C           4.3083    1.9397    0.0000 C.ar    1  UNL1       -0.0442
     17 C           4.3083   -0.1297    0.0000 C.ar    1  UNL1        0.0223
     18 C           9.5323   -0.0950    0.0000 C.ar    1  UNL1        0.1625
     19 C           8.6663   -1.5950    0.0000 C.ar    1  UNL1        0.1625
     20 C           9.5323   -1.0950    0.0000 C.ar    1  UNL1        0.2031
     21 C           3.4022    0.3842    0.0000 C.ar    1  UNL1        0.1204
     22 C           3.4022    1.4258    0.0000 C.ar    1  UNL1       -0.0193
     23 C          10.3984   -2.5950    0.0000 C.3     1  UNL1        0.0791
     24 H           6.9343   -0.2150    0.0000 H       1  UNL1        0.0815
     25 H           6.9343    2.0250    0.0000 H       1  UNL1        0.0718
     26 H           7.2634   -1.4050    0.0000 H       1  UNL1        0.0659
     27 H           8.6663    1.0250    0.0000 H       1  UNL1        0.0659
     28 H           4.3154    2.5596    0.0000 H       1  UNL1        0.0627
     29 H           4.3154   -0.7496    0.0000 H       1  UNL1        0.0691
     30 H           7.8003    2.5250    0.0000 H       1  UNL1        0.2105
     31 H           2.8665    1.7379    0.0000 H       1  UNL1        0.0654
     32 H          10.9353    0.0950    0.0000 H       1  UNL1        0.2923
     33 H           8.1294   -2.9050    0.0000 H       1  UNL1        0.2923
     34 H           2.0000    0.1888    0.0000 H       1  UNL1        0.2921
     35 H           9.7784   -2.5950    0.0000 H       1  UNL1        0.0660
     36 H          10.3984   -3.2150    0.0000 H       1  UNL1        0.0660
     37 H          11.0184   -2.5950    0.0000 H       1  UNL1        0.0660
@<TRIPOS>BOND
     1     1     8    1
     2     1    13    1
     3     9     2    1
     4     2    30    1
     5     3    11    2
     6     4    20    1
     7     4    23    1
     8     5    18    1
     9     5    32    1
    10     6    19    1
    11     6    33    1
    12     7    21    1
    13     7    34    1
    14     8     9    1
    15     8    10    1
    16     8    24    1
    17     9    11    1
    18     9    25    1
    19    10    14   ar
    20    10    15   ar
    21    11    12    1
    22    12    13   ar
    23    12    16   ar
    24    13    17   ar
    25    14    19   ar
    26    14    26    1
    27    15    18   ar
    28    15    27    1
    29    16    22   ar
    30    16    28    1
    31    17    21   ar
    32    17    29    1
    33    18    20   ar
    34    19    20   ar
    35    21    22   ar
    36    22    31    1
    37    23    35    1
    38    23    36    1
    39    23    37    1
