@<TRIPOS>MOLECULE
IMPHY005403
 33 36 0 0 0
SMALL
GASTEIGER

@<TRIPOS>ATOM
      1 O           2.5836    0.1795    0.0000 O.3     1  UNL1       -0.4520
      2 O           2.5836    1.7890    0.0000 O.3     1  UNL1       -0.4526
      3 O           2.5394   -3.1527    0.0000 O.3     1  UNL1       -0.5067
      4 O           4.9611    3.1900    0.0000 O.3     1  UNL1       -0.4771
      5 O           6.5887    2.5976    0.0000 O.2     1  UNL1       -0.2451
      6 O           7.5115   -1.1205    0.0000 O.co2   1  UNL1       -0.5760
      7 O           7.7925    0.5886    0.0000 O.2     1  UNL1        0.0415
      8 N           7.1586   -0.1848    0.0000 N.pl3   1  UNL1        0.0803
      9 C           4.3958   -0.0157    0.0000 C.ar    1  UNL1        0.0427
     10 C           5.2619    0.4843    0.0000 C.ar    1  UNL1        0.0775
     11 C           4.3798   -1.0572    0.0000 C.ar    1  UNL1       -0.0027
     12 C           3.5298    0.4843    0.0000 C.ar    1  UNL1        0.1747
     13 C           5.2778   -1.5850    0.0000 C.ar    1  UNL1       -0.0105
     14 C           5.2619    1.4843    0.0000 C.ar    1  UNL1        0.0767
     15 C           6.1719   -0.0226    0.0000 C.ar    1  UNL1        0.2823
     16 C           3.5298    1.4843    0.0000 C.ar    1  UNL1        0.1677
     17 C           6.1799   -1.0642    0.0000 C.ar    1  UNL1        0.0240
     18 C           4.3958    1.9843    0.0000 C.ar    1  UNL1       -0.0013
     19 C           3.4279   -1.5778    0.0000 C.ar    1  UNL1       -0.0118
     20 C           5.2862   -2.6699    0.0000 C.ar    1  UNL1       -0.0504
     21 C           2.0000    0.9843    0.0000 C.3     1  UNL1        0.2333
     22 C           3.4111   -2.6627    0.0000 C.ar    1  UNL1        0.1175
     23 C           4.3466   -3.2124    0.0000 C.ar    1  UNL1       -0.0196
     24 C           5.6039    2.4240    0.0000 C.2     1  UNL1        0.3377
     25 H           6.7180   -1.3721    0.0000 H       1  UNL1        0.0692
     26 H           4.3958    2.6043    0.0000 H       1  UNL1        0.0664
     27 H           2.8970   -1.2576    0.0000 H       1  UNL1        0.0660
     28 H           5.8243   -2.9779    0.0000 H       1  UNL1        0.0625
     29 H           1.5391    1.3990    0.0000 H       1  UNL1        0.1166
     30 H           1.5391    0.5696    0.0000 H       1  UNL1        0.1166
     31 H           4.3442   -3.8324    0.0000 H       1  UNL1        0.0654
     32 H           2.5322   -3.7726    0.0000 H       1  UNL1        0.2921
     33 H           5.1732    3.7726    0.0000 H       1  UNL1        0.2954
@<TRIPOS>UNITY_ATOM_ATTR
6 1
charge -1
8 1
charge 1
@<TRIPOS>BOND
     1     1    12    1
     2     1    21    1
     3     2    16    1
     4     2    21    1
     5     3    22    1
     6     3    32    1
     7     4    24    1
     8     4    33    1
     9     5    24    2
    10     6     8    1
    11     7     8    2
    12     8    15    1
    13     9    10   ar
    14     9    11   ar
    15     9    12   ar
    16    10    14   ar
    17    10    15   ar
    18    11    13   ar
    19    11    19   ar
    20    12    16   ar
    21    13    17   ar
    22    13    20   ar
    23    14    18   ar
    24    14    24    1
    25    15    17   ar
    26    16    18   ar
    27    17    25    1
    28    18    26    1
    29    19    22   ar
    30    19    27    1
    31    20    23   ar
    32    20    28    1
    33    21    29    1
    34    21    30    1
    35    22    23   ar
    36    23    31    1
