@<TRIPOS>MOLECULE
IMPHY007751
 40 42 0 0 0
SMALL
GASTEIGER

@<TRIPOS>ATOM
      1 O           2.4079    1.2613    0.0000 O.3     1  UNL1       -0.3944
      2 C           5.1705   -0.7073    0.0000 C.3     1  UNL1       -0.0193
      3 C           4.2695   -0.2734    0.0000 C.3     1  UNL1       -0.0268
      4 C           4.0470    0.7015    0.0000 C.3     1  UNL1        0.0009
      5 C           4.6705    1.4834    0.0000 C.3     1  UNL1       -0.0119
      6 C           5.2774    0.4695    0.0000 C.3     1  UNL1       -0.0395
      7 C           5.0345   -1.6920    0.0000 C.3     1  UNL1       -0.0376
      8 C           3.5844   -0.9937    0.0000 C.3     1  UNL1       -0.0488
      9 C           6.0715   -0.2734    0.0000 C.3     1  UNL1       -0.0283
     10 C           4.0562   -1.8687    0.0000 C.3     1  UNL1       -0.0497
     11 C           5.6705    1.4834    0.0000 C.2     1  UNL1       -0.0728
     12 C           3.3891    1.4546    0.0000 C.3     1  UNL1        0.0504
     13 C           3.1275    0.3085    0.0000 C.3     1  UNL1       -0.0567
     14 C           6.2940    0.7015    0.0000 C.2     1  UNL1       -0.0842
     15 C           5.7561   -2.3843    0.0000 C.3     1  UNL1       -0.0619
     16 C           6.1044    2.3843    0.0000 C.3     1  UNL1       -0.0435
     17 H           3.6717   -0.1092    0.0000 H       1  UNL1        0.0312
     18 H           4.4015    2.0420    0.0000 H       1  UNL1        0.0352
     19 H           5.8474    0.2257    0.0000 H       1  UNL1        0.0277
     20 H           5.6852    0.9365    0.0000 H       1  UNL1        0.0277
     21 H           5.6202   -1.4885    0.0000 H       1  UNL1        0.0304
     22 H           3.1826   -0.5216    0.0000 H       1  UNL1        0.0268
     23 H           3.0727   -1.3437    0.0000 H       1  UNL1        0.0268
     24 H           6.2094   -0.8779    0.0000 H       1  UNL1        0.0313
     25 H           6.6915   -0.2734    0.0000 H       1  UNL1        0.0313
     26 H           3.4826   -2.1040    0.0000 H       1  UNL1        0.0268
     27 H           4.2299   -2.4638    0.0000 H       1  UNL1        0.0268
     28 H           3.9197    1.7752    0.0000 H       1  UNL1        0.0563
     29 H           3.1654    2.0329    0.0000 H       1  UNL1        0.0563
     30 H           2.8838    0.8786    0.0000 H       1  UNL1        0.0236
     31 H           2.5574    0.0648    0.0000 H       1  UNL1        0.0236
     32 H           3.3712   -0.2616    0.0000 H       1  UNL1        0.0236
     33 H           6.8984    0.8395    0.0000 H       1  UNL1        0.0572
     34 H           5.3269   -2.8317    0.0000 H       1  UNL1        0.0233
     35 H           6.2035   -2.8136    0.0000 H       1  UNL1        0.0233
     36 H           6.1853   -1.9369    0.0000 H       1  UNL1        0.0233
     37 H           6.6630    2.1153    0.0000 H       1  UNL1        0.0274
     38 H           6.3734    2.9429    0.0000 H       1  UNL1        0.0274
     39 H           5.5458    2.6533    0.0000 H       1  UNL1        0.0274
     40 H           2.0000    1.7282    0.0000 H       1  UNL1        0.2094
@<TRIPOS>BOND
     1     1    12    1
     2     1    40    1
     3     2     3    1
     4     2     6    1
     5     2     7    1
     6     2     9    1
     7     3     4    1
     8     3     8    1
     9     3    17    1
    10     4     5    1
    11     4    12    1
    12     4    13    1
    13     5     6    1
    14     5    11    1
    15     5    18    1
    16     6    19    1
    17     6    20    1
    18     7    10    1
    19     7    15    1
    20     7    21    1
    21     8    10    1
    22     8    22    1
    23     8    23    1
    24     9    14    1
    25     9    24    1
    26     9    25    1
    27    10    26    1
    28    10    27    1
    29    11    14    2
    30    11    16    1
    31    12    28    1
    32    12    29    1
    33    13    30    1
    34    13    31    1
    35    13    32    1
    36    14    33    1
    37    15    34    1
    38    15    35    1
    39    15    36    1
    40    16    37    1
    41    16    38    1
    42    16    39    1
