@<TRIPOS>MOLECULE
IMPHY012259
 12 11 0 0 0
SMALL
GASTEIGER

@<TRIPOS>ATOM
      1 BR          3.7320   -1.2500    0.0000 Br      1  UNL1       -0.0774
      2 BR          2.0000   -0.2500    0.0000 Br      1  UNL1       -0.0901
      3 O           4.5981    1.2500    0.0000 O.2     1  UNL1       -0.2748
      4 N           5.4641   -0.2500    0.0000 N.am    1  UNL1       -0.3284
      5 C           3.7320   -0.2500    0.0000 C.3     1  UNL1        0.1002
      6 C           2.8660    0.2500    0.0000 C.3     1  UNL1        0.0242
      7 C           4.5981    0.2500    0.0000 C.2     1  UNL1        0.2249
      8 H           4.2690   -0.5600    0.0000 H       1  UNL1        0.0521
      9 H           3.2646    0.7249    0.0000 H       1  UNL1        0.0397
     10 H           2.4675    0.7249    0.0000 H       1  UNL1        0.0397
     11 H           6.0010    0.0600    0.0000 H       1  UNL1        0.1450
     12 H           5.4641   -0.8700    0.0000 H       1  UNL1        0.1450
@<TRIPOS>BOND
     1     1     5    1
     2     2     6    1
     3     3     7    2
     4     4     7   am
     5     4    11    1
     6     4    12    1
     7     5     6    1
     8     5     7    1
     9     5     8    1
    10     6     9    1
    11     6    10    1
