@<TRIPOS>MOLECULE
IMPHY002437
 65 70 0 0 0
SMALL
GASTEIGER

@<TRIPOS>ATOM
      1 O           4.5945   -1.5740    0.0000 O.3     1  UNL1       -0.4571
      2 O           7.3536    1.3083    0.0000 O.3     1  UNL1       -0.3791
      3 O           7.4633   -1.8649    0.0000 O.3     1  UNL1       -0.4610
      4 O           7.9094   -0.2876    0.0000 O.2     1  UNL1       -0.2504
      5 O           5.3787   -3.1184    0.0000 O.2     1  UNL1       -0.2511
      6 N           3.7320    0.7947    0.0000 N.3     1  UNL1       -0.2981
      7 C           5.4875    0.8083    0.0000 C.3     1  UNL1        0.0200
      8 C           4.6215    1.3083    0.0000 C.3     1  UNL1       -0.0243
      9 C           4.6137    0.2902    0.0000 C.3     1  UNL1        0.0254
     10 C           4.6482   -0.6638    0.0000 C.3     1  UNL1        0.0163
     11 C           6.3080    0.3202    0.0000 C.3     1  UNL1       -0.0113
     12 C           4.6215    2.3083    0.0000 C.3     1  UNL1       -0.0158
     13 C           4.0656    0.3145    0.0000 C.3     1  UNL1       -0.0411
     14 C           5.4861   -1.1213    0.0000 C.3     1  UNL1        0.1310
     15 C           6.3073   -0.6344    0.0000 C.3     1  UNL1        0.0999
     16 C           6.3536    1.3083    0.0000 C.3     1  UNL1        0.0659
     17 C           3.7360    1.8106    0.0000 C.3     1  UNL1        0.0049
     18 C           5.4875    2.8083    0.0000 C.3     1  UNL1       -0.0438
     19 C           5.7702   -1.3453    0.0000 C.3     1  UNL1       -0.0113
     20 C           6.3536    2.3083    0.0000 C.3     1  UNL1       -0.0255
     21 C           5.3636   -2.0495    0.0000 C.3     1  UNL1       -0.0083
     22 C           6.9438   -2.6439    0.0000 C.3     1  UNL1        0.1035
     23 C           4.1265    3.1772    0.0000 C.3     1  UNL1       -0.0581
     24 C           6.0110   -2.7259    0.0000 C.3     1  UNL1       -0.0120
     25 C           7.1806   -0.9723    0.0000 C.2     1  UNL1        0.3146
     26 C           2.8660    0.2947    0.0000 C.3     1  UNL1       -0.0036
     27 C           2.0000    0.7947    0.0000 C.3     1  UNL1       -0.0523
     28 C           4.5408   -2.5726    0.0000 C.2     1  UNL1        0.3045
     29 C           7.8536    2.1743    0.0000 C.3     1  UNL1        0.0368
     30 C           3.6492   -3.0254    0.0000 C.3     1  UNL1        0.0333
     31 H           5.3518    1.7432    0.0000 H       1  UNL1        0.0313
     32 H           4.0805   -0.3717    0.0000 H       1  UNL1        0.0473
     33 H           3.9252   -1.1107    0.0000 H       1  UNL1        0.0355
     34 H           7.1579    0.3092    0.0000 H       1  UNL1        0.0318
     35 H           3.5853    0.7066    0.0000 H       1  UNL1        0.0273
     36 H           3.5961   -0.0904    0.0000 H       1  UNL1        0.0273
     37 H           7.0385   -0.2009    0.0000 H       1  UNL1        0.0456
     38 H           6.5140    0.7094    0.0000 H       1  UNL1        0.0602
     39 H           3.5292    2.3951    0.0000 H       1  UNL1        0.0432
     40 H           3.1247    1.7068    0.0000 H       1  UNL1        0.0432
     41 H           5.8861    3.2832    0.0000 H       1  UNL1        0.0272
     42 H           5.0890    3.2832    0.0000 H       1  UNL1        0.0272
     43 H           5.2223   -1.0553    0.0000 H       1  UNL1        0.0304
     44 H           5.3894   -1.8346    0.0000 H       1  UNL1        0.0304
     45 H           6.9642    2.2006    0.0000 H       1  UNL1        0.0290
     46 H           6.5656    2.8909    0.0000 H       1  UNL1        0.0290
     47 H           4.7825   -1.8331    0.0000 H       1  UNL1        0.0305
     48 H           5.0228   -2.5675    0.0000 H       1  UNL1        0.0305
     49 H           7.3772   -3.3750    0.0000 H       1  UNL1        0.0734
     50 H           4.6652    3.4841    0.0000 H       1  UNL1        0.0236
     51 H           3.8196    3.7159    0.0000 H       1  UNL1        0.0236
     52 H           3.5878    2.8703    0.0000 H       1  UNL1        0.0236
     53 H           5.4787   -3.0437    0.0000 H       1  UNL1        0.0302
     54 H           6.2019   -3.3158    0.0000 H       1  UNL1        0.0302
     55 H           2.4675   -0.1802    0.0000 H       1  UNL1        0.0424
     56 H           3.2646   -0.1802    0.0000 H       1  UNL1        0.0424
     57 H           2.3100    1.3317    0.0000 H       1  UNL1        0.0242
     58 H           1.4631    1.1047    0.0000 H       1  UNL1        0.0242
     59 H           1.6900    0.2578    0.0000 H       1  UNL1        0.0242
     60 H           8.3905    1.8643    0.0000 H       1  UNL1        0.0524
     61 H           8.1636    2.7112    0.0000 H       1  UNL1        0.0524
     62 H           7.3166    2.4843    0.0000 H       1  UNL1        0.0524
     63 H           3.3685   -2.4726    0.0000 H       1  UNL1        0.0342
     64 H           3.0964   -3.3061    0.0000 H       1  UNL1        0.0342
     65 H           3.9299   -3.5782    0.0000 H       1  UNL1        0.0342
@<TRIPOS>BOND
     1    14     1    1
     2     1    28    1
     3    16     2    1
     4     2    29    1
     5     3    22    1
     6     3    25    1
     7     4    25    2
     8     5    28    2
     9     6     9    1
    10     6    17    1
    11     6    26    1
    12     7     8    1
    13     7     9    1
    14     7    11    1
    15     7    16    1
    16     8    12    1
    17     8    13    1
    18     8    31    1
    19     9    10    1
    20     9    32    1
    21    10    13    1
    22    10    14    1
    23    10    33    1
    24    11    15    1
    25    11    19    1
    26    11    34    1
    27    12    17    1
    28    12    18    1
    29    12    23    1
    30    13    35    1
    31    13    36    1
    32    14    15    1
    33    14    21    1
    34    15    25    1
    35    15    37    1
    36    16    20    1
    37    16    38    1
    38    17    39    1
    39    17    40    1
    40    18    20    1
    41    18    41    1
    42    18    42    1
    43    19    22    1
    44    19    43    1
    45    19    44    1
    46    20    45    1
    47    20    46    1
    48    21    24    1
    49    21    47    1
    50    21    48    1
    51    22    24    1
    52    22    49    1
    53    23    50    1
    54    23    51    1
    55    23    52    1
    56    24    53    1
    57    24    54    1
    58    26    27    1
    59    26    55    1
    60    26    56    1
    61    27    57    1
    62    27    58    1
    63    27    59    1
    64    28    30    1
    65    29    60    1
    66    29    61    1
    67    29    62    1
    68    30    63    1
    69    30    64    1
    70    30    65    1
