@<TRIPOS>MOLECULE
IMPHY006861
 44 47 0 0 0
SMALL
GASTEIGER

@<TRIPOS>ATOM
      1 O           6.0580    2.7370    0.0000 O.2     1  UNL1       -0.2755
      2 N           5.0193   -2.0613    0.0000 N.ar    1  UNL1       -0.3494
      3 N           4.7160    1.7973    0.0000 N.am    1  UNL1       -0.2850
      4 C           6.1557   -0.6964    0.0000 C.3     1  UNL1        0.0118
      5 C           6.9638   -1.3535    0.0000 C.3     1  UNL1       -0.0404
      6 C           5.2160   -1.0384    0.0000 C.ar    1  UNL1        0.0326
      7 C           6.6557    0.1697    0.0000 C.3     1  UNL1       -0.0337
      8 C           7.0954   -0.3543    0.0000 C.3     1  UNL1       -0.0448
      9 C           6.7909   -2.3807    0.0000 C.3     1  UNL1       -0.0341
     10 C           5.8120   -2.7370    0.0000 C.3     1  UNL1        0.0231
     11 C           4.2763   -0.6964    0.0000 C.ar    1  UNL1        0.0051
     12 C           6.4820    1.1545    0.0000 C.3     1  UNL1        0.0251
     13 C           4.0381   -2.2834    0.0000 C.ar    1  UNL1        0.0054
     14 C           3.5572   -1.3998    0.0000 C.ar    1  UNL1       -0.0361
     15 C           7.8614   -0.9971    0.0000 C.3     1  UNL1       -0.0644
     16 C           3.7763    0.1697    0.0000 C.ar    1  UNL1        0.0050
     17 C           5.7160    1.7973    0.0000 C.2     1  UNL1        0.2172
     18 C           3.9499    1.1545    0.0000 C.ar    1  UNL1        0.0412
     19 C           2.8031   -0.2016    0.0000 C.ar    1  UNL1       -0.0522
     20 C           3.1624    1.8362    0.0000 C.ar    1  UNL1       -0.0399
     21 C           2.0000    0.4617    0.0000 C.ar    1  UNL1       -0.0611
     22 C           2.1809    1.4875    0.0000 C.ar    1  UNL1       -0.0600
     23 H           7.5486   -1.5596    0.0000 H       1  UNL1        0.0275
     24 H           7.2669   -0.8127    0.0000 H       1  UNL1        0.0275
     25 H           7.0811   -0.2813    0.0000 H       1  UNL1        0.0279
     26 H           7.2097    0.4479    0.0000 H       1  UNL1        0.0279
     27 H           7.5703    0.0442    0.0000 H       1  UNL1        0.0272
     28 H           6.7854    0.1826    0.0000 H       1  UNL1        0.0272
     29 H           6.9001   -2.9910    0.0000 H       1  UNL1        0.0283
     30 H           7.4108   -2.3775    0.0000 H       1  UNL1        0.0283
     31 H           5.3351   -3.1330    0.0000 H       1  UNL1        0.0492
     32 H           6.1207   -3.2747    0.0000 H       1  UNL1        0.0492
     33 H           7.0978    1.0825    0.0000 H       1  UNL1        0.0359
     34 H           6.7276    1.7238    0.0000 H       1  UNL1        0.0359
     35 H           3.7826   -2.8483    0.0000 H       1  UNL1        0.0809
     36 H           2.9440   -1.3078    0.0000 H       1  UNL1        0.0639
     37 H           7.4629   -1.4721    0.0000 H       1  UNL1        0.0230
     38 H           8.3364   -1.3957    0.0000 H       1  UNL1        0.0230
     39 H           8.2599   -0.5222    0.0000 H       1  UNL1        0.0230
     40 H           4.5039    2.3799    0.0000 H       1  UNL1        0.1548
     41 H           2.7025   -0.8134    0.0000 H       1  UNL1        0.0624
     42 H           3.2771    2.4455    0.0000 H       1  UNL1        0.0636
     43 H           1.4182    0.2474    0.0000 H       1  UNL1        0.0618
     44 H           1.7075    1.8879    0.0000 H       1  UNL1        0.0618
@<TRIPOS>BOND
     1     1    17    2
     2     2     6   ar
     3     2    10    1
     4     2    13   ar
     5     3    17   am
     6     3    18    1
     7     3    40    1
     8     4     5    1
     9     4     6    1
    10     4     7    1
    11     4     8    1
    12     5     9    1
    13     5    23    1
    14     5    24    1
    15     6    11   ar
    16     7    12    1
    17     7    25    1
    18     7    26    1
    19     8    15    1
    20     8    27    1
    21     8    28    1
    22     9    10    1
    23     9    29    1
    24     9    30    1
    25    10    31    1
    26    10    32    1
    27    11    14   ar
    28    11    16    1
    29    12    17    1
    30    12    33    1
    31    12    34    1
    32    13    14   ar
    33    13    35    1
    34    14    36    1
    35    15    37    1
    36    15    38    1
    37    15    39    1
    38    16    18   ar
    39    16    19   ar
    40    18    20   ar
    41    19    21   ar
    42    19    41    1
    43    20    22   ar
    44    20    42    1
    45    21    22   ar
    46    21    43    1
    47    22    44    1
