@<TRIPOS>MOLECULE
IMPHY000216
 36 38 0 0 0
SMALL
GASTEIGER

@<TRIPOS>ATOM
      1 C           5.5320    0.2274    0.0000 C.ar    1  UNL1       -0.0102
      2 C           2.8680   -1.2967    0.0000 C.3     1  UNL1       -0.0215
      3 C           3.7320   -0.7934    0.0000 C.ar    1  UNL1       -0.0442
      4 C           5.5320   -0.7726    0.0000 C.ar    1  UNL1       -0.0170
      5 C           6.3981    0.7274    0.0000 C.ar    1  UNL1       -0.0099
      6 C           7.2641    0.2274    0.0000 C.ar    1  UNL1       -0.0144
      7 C           4.6381   -1.3072    0.0000 C.ar    1  UNL1       -0.0506
      8 C           4.6381    0.7621    0.0000 C.ar    1  UNL1       -0.0532
      9 C           3.7320    0.2483    0.0000 C.ar    1  UNL1       -0.0577
     10 C           6.3981   -1.2726    0.0000 C.ar    1  UNL1       -0.0534
     11 C           7.2641   -0.7726    0.0000 C.ar    1  UNL1       -0.0532
     12 C           8.1741    0.7343    0.0000 C.ar    1  UNL1       -0.0427
     13 C           2.0000   -0.8001    0.0000 C.3     1  UNL1       -0.0586
     14 C           2.8718   -2.2967    0.0000 C.3     1  UNL1       -0.0586
     15 C           6.3820    1.7690    0.0000 C.ar    1  UNL1       -0.0534
     16 C           8.1821    1.7759    0.0000 C.ar    1  UNL1       -0.0582
     17 C           7.2800    2.2967    0.0000 C.ar    1  UNL1       -0.0609
     18 C           9.0343    0.2243    0.0000 C.3     1  UNL1       -0.0391
     19 H           2.3322   -1.6088    0.0000 H       1  UNL1        0.0343
     20 H           4.6453   -1.9272    0.0000 H       1  UNL1        0.0626
     21 H           4.6453    1.3821    0.0000 H       1  UNL1        0.0624
     22 H           3.1963    0.5603    0.0000 H       1  UNL1        0.0621
     23 H           6.3981   -1.8926    0.0000 H       1  UNL1        0.0624
     24 H           7.8010   -1.0826    0.0000 H       1  UNL1        0.0624
     25 H           2.2518   -2.2991    0.0000 H       1  UNL1        0.0235
     26 H           2.3079   -0.2619    0.0000 H       1  UNL1        0.0235
     27 H           1.4619   -0.4921    0.0000 H       1  UNL1        0.0235
     28 H           1.6921   -1.3382    0.0000 H       1  UNL1        0.0235
     29 H           2.8742   -2.9167    0.0000 H       1  UNL1        0.0235
     30 H           3.4918   -2.2943    0.0000 H       1  UNL1        0.0235
     31 H           5.8415    2.0727    0.0000 H       1  UNL1        0.0624
     32 H           8.7203    2.0838    0.0000 H       1  UNL1        0.0620
     33 H           7.2777    2.9167    0.0000 H       1  UNL1        0.0618
     34 H           8.7181   -0.3090    0.0000 H       1  UNL1        0.0278
     35 H           9.5676   -0.0919    0.0000 H       1  UNL1        0.0278
     36 H           9.3505    0.7576    0.0000 H       1  UNL1        0.0278
@<TRIPOS>BOND
     1     1     4   ar
     2     1     5   ar
     3     1     8   ar
     4     2     3    1
     5     2    13    1
     6     2    14    1
     7     2    19    1
     8     3     7   ar
     9     3     9   ar
    10     4     7   ar
    11     4    10   ar
    12     5     6   ar
    13     5    15   ar
    14     6    11   ar
    15     6    12   ar
    16     7    20    1
    17     8     9   ar
    18     8    21    1
    19     9    22    1
    20    10    11   ar
    21    10    23    1
    22    11    24    1
    23    12    16   ar
    24    12    18    1
    25    13    26    1
    26    13    27    1
    27    13    28    1
    28    14    25    1
    29    14    29    1
    30    14    30    1
    31    15    17   ar
    32    15    31    1
    33    16    17   ar
    34    16    32    1
    35    17    33    1
    36    18    34    1
    37    18    35    1
    38    18    36    1
