@<TRIPOS>MOLECULE
IMPHY017400
 26 25 0 0 0
SMALL
GASTEIGER

@<TRIPOS>ATOM
      1 O           9.7942    0.2500    0.0000 O.3     1  UNL1       -0.3910
      2 C           3.7320   -0.2500    0.0000 C.3     1  UNL1       -0.0499
      3 C           2.8660    0.2500    0.0000 C.3     1  UNL1       -0.0556
      4 C           4.5981    0.2500    0.0000 C.3     1  UNL1       -0.0345
      5 C           2.0000   -0.2500    0.0000 C.3     1  UNL1       -0.0653
      6 C           5.4641   -0.2500    0.0000 C.2     1  UNL1       -0.0840
      7 C           6.3301    0.2500    0.0000 C.2     1  UNL1       -0.0659
      8 C           7.1962   -0.2500    0.0000 C.2     1  UNL1       -0.0638
      9 C           8.0622    0.2500    0.0000 C.2     1  UNL1       -0.0590
     10 C           8.9282   -0.2500    0.0000 C.3     1  UNL1        0.0627
     11 H           3.3335   -0.7249    0.0000 H       1  UNL1        0.0268
     12 H           4.1306   -0.7249    0.0000 H       1  UNL1        0.0268
     13 H           3.2646    0.7249    0.0000 H       1  UNL1        0.0263
     14 H           2.4675    0.7249    0.0000 H       1  UNL1        0.0263
     15 H           4.9966    0.7249    0.0000 H       1  UNL1        0.0307
     16 H           4.1996    0.7249    0.0000 H       1  UNL1        0.0307
     17 H           1.6900    0.2869    0.0000 H       1  UNL1        0.0230
     18 H           1.4631   -0.5600    0.0000 H       1  UNL1        0.0230
     19 H           2.3100   -0.7869    0.0000 H       1  UNL1        0.0230
     20 H           5.4641   -0.8700    0.0000 H       1  UNL1        0.0572
     21 H           6.3301    0.8700    0.0000 H       1  UNL1        0.0614
     22 H           7.1962   -0.8700    0.0000 H       1  UNL1        0.0615
     23 H           8.0622    0.8700    0.0000 H       1  UNL1        0.0595
     24 H           8.5297   -0.7249    0.0000 H       1  UNL1        0.0601
     25 H           9.3267   -0.7249    0.0000 H       1  UNL1        0.0601
     26 H          10.3312   -0.0600    0.0000 H       1  UNL1        0.2098
@<TRIPOS>BOND
     1     1    10    1
     2     1    26    1
     3     2     3    1
     4     2     4    1
     5     2    11    1
     6     2    12    1
     7     3     5    1
     8     3    13    1
     9     3    14    1
    10     4     6    1
    11     4    15    1
    12     4    16    1
    13     5    17    1
    14     5    18    1
    15     5    19    1
    16     6     7    2
    17     6    20    1
    18     7     8    1
    19     7    21    1
    20     8     9    2
    21     8    22    1
    22     9    10    1
    23     9    23    1
    24    10    24    1
    25    10    25    1
