@<TRIPOS>MOLECULE
IMPHY001783
 82 86 0 0 0
SMALL
GASTEIGER

@<TRIPOS>ATOM
      1 O           4.7950    0.4679    0.0000 O.3     1  UNL1       -0.3912
      2 O           2.0000   -3.0844    0.0000 O.2     1  UNL1       -0.2968
      3 O          11.8682    2.2754    0.0000 O.3     1  UNL1       -0.3627
      4 O           9.2713    3.1242    0.0000 O.3     1  UNL1       -0.3891
      5 C           6.5271   -1.5321    0.0000 C.3     1  UNL1       -0.0173
      6 C           5.6610   -1.0321    0.0000 C.3     1  UNL1       -0.0028
      7 C           4.7510   -1.5390    0.0000 C.3     1  UNL1       -0.0223
      8 C           7.3931   -1.0321    0.0000 C.3     1  UNL1       -0.0047
      9 C           4.7430   -2.5806    0.0000 C.3     1  UNL1       -0.0234
     10 C           6.5431   -2.5736    0.0000 C.3     1  UNL1       -0.0462
     11 C           5.6610   -0.0321    0.0000 C.3     1  UNL1        0.0628
     12 C           5.6451   -3.1014    0.0000 C.3     1  UNL1       -0.0483
     13 C           7.3931   -0.0321    0.0000 C.2     1  UNL1       -0.0612
     14 C           3.8076   -3.1303    0.0000 C.3     1  UNL1        0.0267
     15 C           3.8242   -0.9749    0.0000 C.3     1  UNL1       -0.0403
     16 C           8.3393   -1.3369    0.0000 C.3     1  UNL1       -0.0397
     17 C           6.5271    0.4679    0.0000 C.3     1  UNL1       -0.0045
     18 C           7.1698   -2.2982    0.0000 C.3     1  UNL1       -0.0584
     19 C           4.7587   -0.5390    0.0000 C.3     1  UNL1       -0.0589
     20 C           8.3393    0.2726    0.0000 C.2     1  UNL1       -0.0667
     21 C           7.7352   -1.9718    0.0000 C.3     1  UNL1       -0.0553
     22 C           8.9229   -0.5321    0.0000 C.3     1  UNL1       -0.0304
     23 C           2.8763   -1.5028    0.0000 C.3     1  UNL1        0.0069
     24 C           2.8680   -2.5878    0.0000 C.2     1  UNL1        0.1392
     25 C           3.3109   -3.9982    0.0000 C.3     1  UNL1       -0.0528
     26 C           4.3109   -3.9944    0.0000 C.3     1  UNL1       -0.0528
     27 C           8.6500    1.2231    0.0000 C.3     1  UNL1       -0.0200
     28 C           9.6285    1.4293    0.0000 C.3     1  UNL1       -0.0180
     29 C           7.9821    1.9674    0.0000 C.3     1  UNL1       -0.0586
     30 C           9.9391    2.3799    0.0000 C.3     1  UNL1        0.0846
     31 C          10.9176    2.5861    0.0000 C.3     1  UNL1        0.1136
     32 C          11.6619    3.2539    0.0000 C.3     1  UNL1        0.0930
     33 C          12.6404    3.4602    0.0000 C.3     1  UNL1       -0.0335
     34 C          10.9941    3.9982    0.0000 C.3     1  UNL1       -0.0335
     35 H           6.3972   -0.6071    0.0000 H       1  UNL1        0.0337
     36 H           4.7463   -3.4306    0.0000 H       1  UNL1        0.0315
     37 H           6.7612   -3.1540    0.0000 H       1  UNL1        0.0271
     38 H           7.1523   -2.4581    0.0000 H       1  UNL1        0.0271
     39 H           5.6610    0.5879    0.0000 H       1  UNL1        0.0599
     40 H           5.2478   -3.5774    0.0000 H       1  UNL1        0.0269
     41 H           6.0460   -3.5743    0.0000 H       1  UNL1        0.0269
     42 H           4.2324   -0.5082    0.0000 H       1  UNL1        0.0275
     43 H           3.4343   -0.4928    0.0000 H       1  UNL1        0.0275
     44 H           8.0883   -1.9038    0.0000 H       1  UNL1        0.0277
     45 H           8.8767   -1.6461    0.0000 H       1  UNL1        0.0277
     46 H           6.9256    0.9428    0.0000 H       1  UNL1        0.0335
     47 H           6.1285    0.9428    0.0000 H       1  UNL1        0.0335
     48 H           6.6949   -2.6967    0.0000 H       1  UNL1        0.0235
     49 H           7.5684   -2.7731    0.0000 H       1  UNL1        0.0235
     50 H           7.6448   -1.8996    0.0000 H       1  UNL1        0.0235
     51 H           5.3787   -0.5438    0.0000 H       1  UNL1        0.0235
     52 H           4.7635    0.0810    0.0000 H       1  UNL1        0.0235
     53 H           4.1388   -0.5342    0.0000 H       1  UNL1        0.0235
     54 H           7.1526   -2.1839    0.0000 H       1  UNL1        0.0238
     55 H           7.9473   -2.5544    0.0000 H       1  UNL1        0.0238
     56 H           8.3178   -1.7597    0.0000 H       1  UNL1        0.0238
     57 H           9.3838   -0.9468    0.0000 H       1  UNL1        0.0310
     58 H           9.3838   -0.1174    0.0000 H       1  UNL1        0.0310
     59 H           2.6718   -0.9175    0.0000 H       1  UNL1        0.0342
     60 H           2.2647   -1.6042    0.0000 H       1  UNL1        0.0342
     61 H           2.7728   -3.6903    0.0000 H       1  UNL1        0.0239
     62 H           3.0030   -4.5364    0.0000 H       1  UNL1        0.0239
     63 H           3.8490   -4.3062    0.0000 H       1  UNL1        0.0239
     64 H           3.7752   -4.3064    0.0000 H       1  UNL1        0.0239
     65 H           4.6230   -4.5301    0.0000 H       1  UNL1        0.0239
     66 H           4.8466   -3.6823    0.0000 H       1  UNL1        0.0239
     67 H           8.0433    1.0953    0.0000 H       1  UNL1        0.0344
     68 H           4.7950    1.0879    0.0000 H       1  UNL1        0.2098
     69 H           9.6490    0.8097    0.0000 H       1  UNL1        0.0297
     70 H          10.2423    1.3420    0.0000 H       1  UNL1        0.0297
     71 H           8.4436    2.3815    0.0000 H       1  UNL1        0.0235
     72 H           7.5681    2.4289    0.0000 H       1  UNL1        0.0235
     73 H           7.5207    1.5534    0.0000 H       1  UNL1        0.0235
     74 H          10.1317    2.9692    0.0000 H       1  UNL1        0.0620
     75 H          10.8717    1.7373    0.0000 H       1  UNL1        0.0651
     76 H           9.4639    3.7135    0.0000 H       1  UNL1        0.2099
     77 H          12.7683    2.8535    0.0000 H       1  UNL1        0.0258
     78 H          13.2471    3.5880    0.0000 H       1  UNL1        0.0258
     79 H          12.5126    4.0668    0.0000 H       1  UNL1        0.0258
     80 H          11.4556    4.4123    0.0000 H       1  UNL1        0.0258
     81 H          10.5800    4.4597    0.0000 H       1  UNL1        0.0258
     82 H          10.5326    3.5842    0.0000 H       1  UNL1        0.0258
@<TRIPOS>BOND
     1    11     1    1
     2     1    68    1
     3     2    24    2
     4     3    31    1
     5     3    32    1
     6    30     4    1
     7     4    76    1
     8     5     6    1
     9     5     8    1
    10     5    10    1
    11     5    18    1
    12     6     7    1
    13     6    11    1
    14     6    35    1
    15     7     9    1
    16     7    15    1
    17     7    19    1
    18     8    13    1
    19     8    16    1
    20     8    21    1
    21     9    12    1
    22     9    14    1
    23     9    36    1
    24    10    12    1
    25    10    37    1
    26    10    38    1
    27    11    17    1
    28    11    39    1
    29    12    40    1
    30    12    41    1
    31    13    17    1
    32    13    20    2
    33    14    24    1
    34    14    25    1
    35    14    26    1
    36    15    23    1
    37    15    42    1
    38    15    43    1
    39    16    22    1
    40    16    44    1
    41    16    45    1
    42    17    46    1
    43    17    47    1
    44    18    48    1
    45    18    49    1
    46    18    50    1
    47    19    51    1
    48    19    52    1
    49    19    53    1
    50    20    22    1
    51    20    27    1
    52    21    54    1
    53    21    55    1
    54    21    56    1
    55    22    57    1
    56    22    58    1
    57    23    24    1
    58    23    59    1
    59    23    60    1
    60    25    61    1
    61    25    62    1
    62    25    63    1
    63    26    64    1
    64    26    65    1
    65    26    66    1
    66    27    28    1
    67    27    29    1
    68    27    67    1
    69    28    30    1
    70    28    69    1
    71    28    70    1
    72    29    71    1
    73    29    72    1
    74    29    73    1
    75    30    31    1
    76    30    74    1
    77    31    32    1
    78    31    75    1
    79    32    33    1
    80    32    34    1
    81    33    77    1
    82    33    78    1
    83    33    79    1
    84    34    80    1
    85    34    81    1
    86    34    82    1
