@<TRIPOS>MOLECULE
IMPHY010678
 179 189 0 0 0
SMALL
GASTEIGER

@<TRIPOS>ATOM
      1 O           6.2799    1.3568    0.0000 O.3     1  UNL1       -0.3719
      2 O           6.1757    3.7536    0.0000 O.3     1  UNL1       -0.3911
      3 O          11.6748   -2.5000    0.0000 O.3     1  UNL1       -0.3449
      4 O           2.0000    2.1091    0.0000 O.2     1  UNL1       -0.3005
      5 O          12.5408   -1.0000    0.0000 O.3     1  UNL1       -0.3460
      6 O          13.4068   -3.5000    0.0000 O.3     1  UNL1       -0.3378
      7 O          15.1389   -2.5000    0.0000 O.3     1  UNL1       -0.3864
      8 O          15.1389   -0.5000    0.0000 O.3     1  UNL1       -0.3405
      9 O          11.6748   -3.5000    0.0000 O.3     1  UNL1       -0.3405
     10 O          14.2729    1.0000    0.0000 O.3     1  UNL1       -0.3405
     11 O          13.4068   -5.5000    0.0000 O.3     1  UNL1       -0.3841
     12 O          11.6748   -6.5000    0.0000 O.3     1  UNL1       -0.3864
     13 O          16.8709    0.5000    0.0000 O.3     1  UNL1       -0.3378
     14 O           9.9427   -5.5000    0.0000 O.3     1  UNL1       -0.3865
     15 O          16.8709    2.5000    0.0000 O.3     1  UNL1       -0.3400
     16 O           9.0767   -4.0000    0.0000 O.3     1  UNL1       -0.3924
     17 O          15.1389    3.5000    0.0000 O.3     1  UNL1       -0.3865
     18 O          12.5408    2.0000    0.0000 O.3     1  UNL1       -0.3924
     19 O          17.7370    2.0000    0.0000 O.3     1  UNL1       -0.3461
     20 O          16.0049    4.0000    0.0000 O.3     1  UNL1       -0.3405
     21 O          18.6030   -0.5000    0.0000 O.3     1  UNL1       -0.3841
     22 O          18.6030    3.5000    0.0000 O.3     1  UNL1       -0.3841
     23 O          20.3350    0.5000    0.0000 O.3     1  UNL1       -0.3864
     24 O          20.3350    2.5000    0.0000 O.3     1  UNL1       -0.3869
     25 O          18.6030    5.5000    0.0000 O.3     1  UNL1       -0.3864
     26 O          16.8709    6.5000    0.0000 O.3     1  UNL1       -0.3865
     27 O          15.1389    6.5000    0.0000 O.3     1  UNL1       -0.3924
     28 C           7.0321    1.2503    0.0000 C.3     1  UNL1        0.0053
     29 C           6.1642    0.7537    0.0000 C.3     1  UNL1        0.0790
     30 C           7.9402    0.7400    0.0000 C.3     1  UNL1       -0.0206
     31 C           5.3001    1.2570    0.0000 C.3     1  UNL1       -0.0004
     32 C           7.9442   -0.3017    0.0000 C.3     1  UNL1       -0.0293
     33 C           5.3039    2.2570    0.0000 C.3     1  UNL1        0.0256
     34 C           8.8775   -0.8550    0.0000 C.3     1  UNL1       -0.0252
     35 C           7.0360    2.2503    0.0000 C.3     1  UNL1       -0.0177
     36 C           6.1441   -0.2878    0.0000 C.3     1  UNL1       -0.0226
     37 C           6.1719    2.7536    0.0000 C.3     1  UNL1        0.0639
     38 C           7.0401   -0.8190    0.0000 C.3     1  UNL1       -0.0466
     39 C           9.8192   -0.3161    0.0000 C.3     1  UNL1       -0.0278
     40 C           8.8692    1.3005    0.0000 C.3     1  UNL1       -0.0465
     41 C           5.8826    2.0512    0.0000 C.3     1  UNL1        0.0567
     42 C           4.4041    0.7258    0.0000 C.3     1  UNL1       -0.0350
     43 C           4.4121    2.7951    0.0000 C.3     1  UNL1       -0.0417
     44 C           9.8150    0.7689    0.0000 C.3     1  UNL1       -0.0486
     45 C           7.6778    2.0139    0.0000 C.3     1  UNL1       -0.0563
     46 C           8.2785    1.6810    0.0000 C.3     1  UNL1       -0.0587
     47 C          10.8044   -0.8698    0.0000 C.3     1  UNL1       -0.0052
     48 C           8.8557   -1.9849    0.0000 C.3     1  UNL1       -0.0447
     49 C           3.5000    1.2431    0.0000 C.3     1  UNL1        0.0236
     50 C           3.5040    2.2847    0.0000 C.3     1  UNL1       -0.0405
     51 C           8.0095   -1.3516    0.0000 C.3     1  UNL1       -0.0590
     52 C          10.8088   -2.0000    0.0000 C.3     1  UNL1        0.0672
     53 C           9.8278   -2.5613    0.0000 C.3     1  UNL1       -0.0255
     54 C          11.2977    0.0000    0.0000 C.3     1  UNL1       -0.0572
     55 C          11.8044   -0.8621    0.0000 C.3     1  UNL1       -0.0572
     56 C           3.0000    0.3771    0.0000 C.3     1  UNL1       -0.0531
     57 C           2.5000    1.2431    0.0000 C.2     1  UNL1        0.1262
     58 C          12.5408   -2.0000    0.0000 C.3     1  UNL1        0.1882
     59 C          13.4068   -2.5000    0.0000 C.3     1  UNL1        0.1406
     60 C          14.2729   -2.0000    0.0000 C.3     1  UNL1        0.1144
     61 C          13.4068   -0.5000    0.0000 C.3     1  UNL1        0.0796
     62 C          14.2729   -1.0000    0.0000 C.3     1  UNL1        0.1135
     63 C          12.5408   -4.0000    0.0000 C.3     1  UNL1        0.1885
     64 C          12.5408   -5.0000    0.0000 C.3     1  UNL1        0.1341
     65 C          15.1389    0.5000    0.0000 C.3     1  UNL1        0.1888
     66 C          11.6748   -5.5000    0.0000 C.3     1  UNL1        0.1141
     67 C          10.8088   -4.0000    0.0000 C.3     1  UNL1        0.1130
     68 C          16.0049    1.0000    0.0000 C.3     1  UNL1        0.1410
     69 C          10.8088   -5.0000    0.0000 C.3     1  UNL1        0.1119
     70 C          16.0049    2.0000    0.0000 C.3     1  UNL1        0.1209
     71 C          14.2729    2.0000    0.0000 C.3     1  UNL1        0.1130
     72 C           9.9427   -3.5000    0.0000 C.3     1  UNL1        0.0730
     73 C          15.1389    2.5000    0.0000 C.3     1  UNL1        0.1123
     74 C          13.4068    2.5000    0.0000 C.3     1  UNL1        0.0730
     75 C          17.7370    1.0000    0.0000 C.3     1  UNL1        0.1881
     76 C          16.8709    3.5000    0.0000 C.3     1  UNL1        0.1884
     77 C          18.6030    0.5000    0.0000 C.3     1  UNL1        0.1341
     78 C          17.7370    4.0000    0.0000 C.3     1  UNL1        0.1341
     79 C          19.4690    1.0000    0.0000 C.3     1  UNL1        0.1137
     80 C          18.6030    2.5000    0.0000 C.3     1  UNL1        0.0792
     81 C          19.4690    2.0000    0.0000 C.3     1  UNL1        0.1069
     82 C          17.7370    5.0000    0.0000 C.3     1  UNL1        0.1141
     83 C          16.0049    5.0000    0.0000 C.3     1  UNL1        0.1130
     84 C          16.8709    5.5000    0.0000 C.3     1  UNL1        0.1119
     85 C          15.1389    5.5000    0.0000 C.3     1  UNL1        0.0730
     86 H           5.2968    0.4070    0.0000 H       1  UNL1        0.0336
     87 H           7.9376   -1.1516    0.0000 H       1  UNL1        0.0312
     88 H           7.6461    2.1403    0.0000 H       1  UNL1        0.0297
     89 H           7.2503    2.8321    0.0000 H       1  UNL1        0.0297
     90 H           5.5354   -0.1699    0.0000 H       1  UNL1        0.0293
     91 H           5.9238   -0.8673    0.0000 H       1  UNL1        0.0293
     92 H           6.7100    3.0616    0.0000 H       1  UNL1        0.0600
     93 H           6.6373   -1.2903    0.0000 H       1  UNL1        0.0269
     94 H           7.4356   -1.2965    0.0000 H       1  UNL1        0.0269
     95 H          10.5520    0.1145    0.0000 H       1  UNL1        0.0312
     96 H           9.2609    1.7810    0.0000 H       1  UNL1        0.0271
     97 H           8.4628    1.7687    0.0000 H       1  UNL1        0.0271
     98 H           6.4859    2.1941    0.0000 H       1  UNL1        0.0566
     99 H           5.9164    2.6702    0.0000 H       1  UNL1        0.0566
    100 H           4.0086    0.2483    0.0000 H       1  UNL1        0.0278
    101 H           4.8069    0.2544    0.0000 H       1  UNL1        0.0278
    102 H           4.8185    3.2633    0.0000 H       1  UNL1        0.0272
    103 H           4.0203    3.2756    0.0000 H       1  UNL1        0.0272
    104 H          10.4263    0.6651    0.0000 H       1  UNL1        0.0268
    105 H          10.0218    1.3534    0.0000 H       1  UNL1        0.0268
    106 H           8.1513    1.6135    0.0000 H       1  UNL1        0.0236
    107 H           8.0782    2.4873    0.0000 H       1  UNL1        0.0236
    108 H           7.2044    2.4142    0.0000 H       1  UNL1        0.0236
    109 H           8.8620    1.4712    0.0000 H       1  UNL1        0.0235
    110 H           8.4884    2.2644    0.0000 H       1  UNL1        0.0235
    111 H           7.6951    1.8908    0.0000 H       1  UNL1        0.0235
    112 H           8.2470   -1.8671    0.0000 H       1  UNL1        0.0271
    113 H           8.6354   -2.5645    0.0000 H       1  UNL1        0.0271
    114 H           3.2972    2.8692    0.0000 H       1  UNL1        0.0275
    115 H           2.8928    2.1810    0.0000 H       1  UNL1        0.0275
    116 H           7.7016   -0.8135    0.0000 H       1  UNL1        0.0235
    117 H           7.4714   -1.6596    0.0000 H       1  UNL1        0.0235
    118 H           8.3174   -1.8898    0.0000 H       1  UNL1        0.0235
    119 H          11.3451   -1.6890    0.0000 H       1  UNL1        0.0602
    120 H           9.4250   -3.0326    0.0000 H       1  UNL1        0.0290
    121 H          10.2233   -3.0388    0.0000 H       1  UNL1        0.0290
    122 H           5.6400    4.0657    0.0000 H       1  UNL1        0.2098
    123 H          11.8370   -0.3058    0.0000 H       1  UNL1        0.0236
    124 H          11.6036    0.5393    0.0000 H       1  UNL1        0.0236
    125 H          10.7584    0.3059    0.0000 H       1  UNL1        0.0236
    126 H          11.8092   -1.4821    0.0000 H       1  UNL1        0.0236
    127 H          12.4244   -0.8574    0.0000 H       1  UNL1        0.0236
    128 H          11.7996   -0.2422    0.0000 H       1  UNL1        0.0236
    129 H           2.4631    0.6871    0.0000 H       1  UNL1        0.0239
    130 H           2.6900   -0.1599    0.0000 H       1  UNL1        0.0239
    131 H           3.5369    0.0671    0.0000 H       1  UNL1        0.0239
    132 H           2.1900    0.7062    0.0000 H       1  UNL1        0.1032
    133 H          12.5408   -2.6200    0.0000 H       1  UNL1        0.0937
    134 H          13.9438   -2.8100    0.0000 H       1  UNL1        0.0675
    135 H          14.8098   -1.6900    0.0000 H       1  UNL1        0.0648
    136 H          13.8054   -0.0251    0.0000 H       1  UNL1        0.0587
    137 H          13.0083   -0.0251    0.0000 H       1  UNL1        0.0587
    138 H          14.2729   -0.3800    0.0000 H       1  UNL1        0.0647
    139 H          13.0777   -4.3100    0.0000 H       1  UNL1        0.0938
    140 H          15.6758   -2.1900    0.0000 H       1  UNL1        0.2100
    141 H          12.5408   -5.6200    0.0000 H       1  UNL1        0.0671
    142 H          15.6758    0.1900    0.0000 H       1  UNL1        0.0938
    143 H          11.1378   -5.8100    0.0000 H       1  UNL1        0.0648
    144 H          10.8088   -3.3800    0.0000 H       1  UNL1        0.0647
    145 H          16.5418    1.3100    0.0000 H       1  UNL1        0.0675
    146 H          10.2718   -4.6900    0.0000 H       1  UNL1        0.0647
    147 H          13.9438   -5.1900    0.0000 H       1  UNL1        0.2101
    148 H          16.0049    2.6200    0.0000 H       1  UNL1        0.0651
    149 H          13.7359    1.6900    0.0000 H       1  UNL1        0.0647
    150 H          10.3413   -3.0250    0.0000 H       1  UNL1        0.0584
    151 H           9.5442   -3.0250    0.0000 H       1  UNL1        0.0584
    152 H          14.6020    2.8100    0.0000 H       1  UNL1        0.0647
    153 H          12.2117   -6.8100    0.0000 H       1  UNL1        0.2100
    154 H           9.9427   -6.1200    0.0000 H       1  UNL1        0.2100
    155 H          13.8054    2.9750    0.0000 H       1  UNL1        0.0584
    156 H          13.0083    2.9750    0.0000 H       1  UNL1        0.0584
    157 H          17.2000    1.3100    0.0000 H       1  UNL1        0.0937
    158 H           8.5398   -3.6900    0.0000 H       1  UNL1        0.2095
    159 H          14.6020    3.8100    0.0000 H       1  UNL1        0.2100
    160 H          17.4079    3.1900    0.0000 H       1  UNL1        0.0938
    161 H          18.0661    0.1900    0.0000 H       1  UNL1        0.0671
    162 H          12.0039    2.3100    0.0000 H       1  UNL1        0.2095
    163 H          18.2739    4.3100    0.0000 H       1  UNL1        0.0671
    164 H          19.4690    0.3800    0.0000 H       1  UNL1        0.0647
    165 H          19.0015    2.9750    0.0000 H       1  UNL1        0.0587
    166 H          18.2045    2.9750    0.0000 H       1  UNL1        0.0587
    167 H          19.4690    2.6200    0.0000 H       1  UNL1        0.0643
    168 H          17.7370    5.6200    0.0000 H       1  UNL1        0.0648
    169 H          15.4680    4.6900    0.0000 H       1  UNL1        0.0647
    170 H          19.1399   -0.8100    0.0000 H       1  UNL1        0.2101
    171 H          16.3340    5.8100    0.0000 H       1  UNL1        0.0647
    172 H          19.1399    3.8100    0.0000 H       1  UNL1        0.2101
    173 H          20.8720    0.8100    0.0000 H       1  UNL1        0.2100
    174 H          14.5283    5.6077    0.0000 H       1  UNL1        0.0584
    175 H          14.9268    4.9174    0.0000 H       1  UNL1        0.0584
    176 H          20.3350    3.1200    0.0000 H       1  UNL1        0.2100
    177 H          18.6030    6.1200    0.0000 H       1  UNL1        0.2100
    178 H          17.4079    6.8100    0.0000 H       1  UNL1        0.2100
    179 H          14.6020    6.8100    0.0000 H       1  UNL1        0.2095
@<TRIPOS>BOND
     1     1    29    1
     2     1    41    1
     3    37     2    1
     4     2   122    1
     5    52     3    1
     6    58     3    1
     7     4    57    2
     8     5    58    1
     9     5    61    1
    10    59     6    1
    11    63     6    1
    12    60     7    1
    13     7   140    1
    14    62     8    1
    15    65     8    1
    16     9    63    1
    17     9    67    1
    18    10    65    1
    19    10    71    1
    20    64    11    1
    21    11   147    1
    22    66    12    1
    23    12   153    1
    24    68    13    1
    25    75    13    1
    26    69    14    1
    27    14   154    1
    28    70    15    1
    29    76    15    1
    30    16    72    1
    31    16   158    1
    32    73    17    1
    33    17   159    1
    34    18    74    1
    35    18   162    1
    36    19    75    1
    37    19    80    1
    38    20    76    1
    39    20    83    1
    40    77    21    1
    41    21   170    1
    42    78    22    1
    43    22   172    1
    44    79    23    1
    45    23   173    1
    46    81    24    1
    47    24   176    1
    48    82    25    1
    49    25   177    1
    50    84    26    1
    51    26   178    1
    52    27    85    1
    53    27   179    1
    54    28    29    1
    55    28    30    1
    56    28    35    1
    57    28    45    1
    58    29    31    1
    59    29    36    1
    60    30    32    1
    61    30    40    1
    62    30    46    1
    63    31    33    1
    64    31    42    1
    65    31    86    1
    66    32    34    1
    67    32    38    1
    68    32    87    1
    69    33    37    1
    70    33    41    1
    71    33    43    1
    72    34    39    1
    73    34    48    1
    74    34    51    1
    75    35    37    1
    76    35    88    1
    77    35    89    1
    78    36    38    1
    79    36    90    1
    80    36    91    1
    81    37    92    1
    82    38    93    1
    83    38    94    1
    84    39    44    1
    85    39    47    1
    86    39    95    1
    87    40    44    1
    88    40    96    1
    89    40    97    1
    90    41    98    1
    91    41    99    1
    92    42    49    1
    93    42   100    1
    94    42   101    1
    95    43    50    1
    96    43   102    1
    97    43   103    1
    98    44   104    1
    99    44   105    1
   100    45   106    1
   101    45   107    1
   102    45   108    1
   103    46   109    1
   104    46   110    1
   105    46   111    1
   106    47    52    1
   107    47    54    1
   108    47    55    1
   109    48    53    1
   110    48   112    1
   111    48   113    1
   112    49    50    1
   113    49    56    1
   114    49    57    1
   115    50   114    1
   116    50   115    1
   117    51   116    1
   118    51   117    1
   119    51   118    1
   120    52    53    1
   121    52   119    1
   122    53   120    1
   123    53   121    1
   124    54   123    1
   125    54   124    1
   126    54   125    1
   127    55   126    1
   128    55   127    1
   129    55   128    1
   130    56   129    1
   131    56   130    1
   132    56   131    1
   133    57   132    1
   134    58    59    1
   135    58   133    1
   136    59    60    1
   137    59   134    1
   138    60    62    1
   139    60   135    1
   140    61    62    1
   141    61   136    1
   142    61   137    1
   143    62   138    1
   144    63    64    1
   145    63   139    1
   146    64    66    1
   147    64   141    1
   148    65    68    1
   149    65   142    1
   150    66    69    1
   151    66   143    1
   152    67    69    1
   153    67    72    1
   154    67   144    1
   155    68    70    1
   156    68   145    1
   157    69   146    1
   158    70    73    1
   159    70   148    1
   160    71    73    1
   161    71    74    1
   162    71   149    1
   163    72   150    1
   164    72   151    1
   165    73   152    1
   166    74   155    1
   167    74   156    1
   168    75    77    1
   169    75   157    1
   170    76    78    1
   171    76   160    1
   172    77    79    1
   173    77   161    1
   174    78    82    1
   175    78   163    1
   176    79    81    1
   177    79   164    1
   178    80    81    1
   179    80   165    1
   180    80   166    1
   181    81   167    1
   182    82    84    1
   183    82   168    1
   184    83    84    1
   185    83    85    1
   186    83   169    1
   187    84   171    1
   188    85   174    1
   189    85   175    1
