@<TRIPOS>MOLECULE
IMPHY013117
 70 74 0 0 0
SMALL
GASTEIGER

@<TRIPOS>ATOM
      1 O           5.1350   -2.7687    0.0000 O.3     1  UNL1       -0.3313
      2 O           6.8671   -2.7687    0.0000 O.3     1  UNL1       -0.4532
      3 O           5.1350   -5.7687    0.0000 O.3     1  UNL1       -0.3864
      4 O           3.4030   -4.7687    0.0000 O.3     1  UNL1       -0.3865
      5 O           6.8671   -4.7687    0.0000 O.3     1  UNL1       -0.3829
      6 O           6.9062    3.2727    0.0000 O.3     1  UNL1       -0.3369
      7 O           7.7549    1.7628    0.0000 O.3     1  UNL1       -0.4534
      8 O           9.5215    4.7425    0.0000 O.3     1  UNL1       -0.3864
      9 O           9.4984    2.7427    0.0000 O.3     1  UNL1       -0.3829
     10 O           2.5369   -3.2687    0.0000 O.3     1  UNL1       -0.3924
     11 O           7.8011    5.7625    0.0000 O.3     1  UNL1       -0.3869
     12 O           7.7331   -0.2687    0.0000 O.2     1  UNL1       -0.4470
     13 O           5.1350   -1.7687    0.0000 O.2     1  UNL1       -0.2830
     14 O           5.9889    2.8006    0.0000 O.3     1  UNL1       -0.5031
     15 O           4.2308   -0.2718    0.0000 O.3     1  UNL1       -0.5058
     16 O          11.1972   -3.2687    0.0000 O.3     1  UNL1       -0.5068
     17 C           5.1350   -4.7687    0.0000 C.3     1  UNL1        0.1152
     18 C           4.2690   -4.2687    0.0000 C.3     1  UNL1        0.1120
     19 C           6.0010   -4.2687    0.0000 C.3     1  UNL1        0.1454
     20 C           4.2690   -3.2687    0.0000 C.3     1  UNL1        0.1140
     21 C           6.0010   -3.2687    0.0000 C.3     1  UNL1        0.2311
     22 C           3.4030   -2.7687    0.0000 C.3     1  UNL1        0.0731
     23 C           8.6497    4.2526    0.0000 C.3     1  UNL1        0.1148
     24 C           8.6382    3.2527    0.0000 C.3     1  UNL1        0.1454
     25 C           7.7896    4.7626    0.0000 C.3     1  UNL1        0.1070
     26 C           7.7664    2.7627    0.0000 C.3     1  UNL1        0.2308
     27 C           6.9178    4.2726    0.0000 C.3     1  UNL1        0.0802
     28 C           6.8671   -1.7687    0.0000 C.ar    1  UNL1        0.2138
     29 C           6.8831    1.2728    0.0000 C.ar    1  UNL1        0.2080
     30 C           6.8671    0.2313    0.0000 C.ar    1  UNL1        0.1882
     31 C           7.7331   -1.2687    0.0000 C.ar    1  UNL1        0.1811
     32 C           6.0010   -0.2687    0.0000 C.ar    1  UNL1        0.1128
     33 C           6.0010   -1.2687    0.0000 C.ar    1  UNL1        0.2383
     34 C           5.9851    1.8006    0.0000 C.ar    1  UNL1        0.1658
     35 C           5.0910    0.2382    0.0000 C.ar    1  UNL1        0.1350
     36 C           8.5991   -1.7687    0.0000 C.ar    1  UNL1        0.0213
     37 C           5.0830    1.2798    0.0000 C.ar    1  UNL1        0.0259
     38 C           8.5991   -2.7687    0.0000 C.ar    1  UNL1       -0.0475
     39 C           9.4651   -1.2687    0.0000 C.ar    1  UNL1       -0.0475
     40 C           9.4651   -3.2687    0.0000 C.ar    1  UNL1       -0.0195
     41 C          10.3312   -1.7687    0.0000 C.ar    1  UNL1       -0.0195
     42 C          10.3312   -2.7687    0.0000 C.ar    1  UNL1        0.1169
     43 H           4.5981   -5.0787    0.0000 H       1  UNL1        0.0648
     44 H           4.2690   -4.8887    0.0000 H       1  UNL1        0.0647
     45 H           6.0010   -4.8887    0.0000 H       1  UNL1        0.0683
     46 H           4.2690   -2.6487    0.0000 H       1  UNL1        0.0647
     47 H           6.0010   -2.6487    0.0000 H       1  UNL1        0.1084
     48 H           8.6569    4.8726    0.0000 H       1  UNL1        0.0648
     49 H           9.1787    3.5564    0.0000 H       1  UNL1        0.0683
     50 H           3.8015   -2.2937    0.0000 H       1  UNL1        0.0584
     51 H           3.0044   -2.2937    0.0000 H       1  UNL1        0.0584
     52 H           7.2562    5.0788    0.0000 H       1  UNL1        0.0643
     53 H           8.2998    2.4465    0.0000 H       1  UNL1        0.1084
     54 H           6.7125    4.8576    0.0000 H       1  UNL1        0.0588
     55 H           6.3060    4.1720    0.0000 H       1  UNL1        0.0588
     56 H           4.5981   -6.0787    0.0000 H       1  UNL1        0.2100
     57 H           3.4030   -5.3887    0.0000 H       1  UNL1        0.2100
     58 H           6.8671   -5.3887    0.0000 H       1  UNL1        0.2102
     59 H           9.5287    5.3625    0.0000 H       1  UNL1        0.2100
     60 H          10.0389    3.0464    0.0000 H       1  UNL1        0.2102
     61 H           2.0000   -2.9587    0.0000 H       1  UNL1        0.2095
     62 H           7.2678    6.0787    0.0000 H       1  UNL1        0.2100
     63 H           4.5449    1.5877    0.0000 H       1  UNL1        0.0692
     64 H           8.0622   -3.0787    0.0000 H       1  UNL1        0.0626
     65 H           9.4651   -0.6487    0.0000 H       1  UNL1        0.0626
     66 H           5.4532    3.1126    0.0000 H       1  UNL1        0.2923
     67 H           3.6904    0.0319    0.0000 H       1  UNL1        0.2922
     68 H           9.4651   -3.8887    0.0000 H       1  UNL1        0.0654
     69 H          10.8681   -1.4587    0.0000 H       1  UNL1        0.0654
     70 H          11.1972   -3.8887    0.0000 H       1  UNL1        0.2921
@<TRIPOS>BOND
     1     1    20    1
     2     1    21    1
     3    21     2    1
     4     2    28    1
     5    17     3    1
     6     3    56    1
     7    18     4    1
     8     4    57    1
     9    19     5    1
    10     5    58    1
    11     6    26    1
    12     6    27    1
    13    26     7    1
    14     7    29    1
    15    23     8    1
    16     8    59    1
    17    24     9    1
    18     9    60    1
    19    10    22    1
    20    10    61    1
    21    25    11    1
    22    11    62    1
    23    12    30   ar
    24    12    31   ar
    25    13    33    2
    26    14    34    1
    27    14    66    1
    28    15    35    1
    29    15    67    1
    30    16    42    1
    31    16    70    1
    32    17    18    1
    33    17    19    1
    34    17    43    1
    35    18    20    1
    36    18    44    1
    37    19    21    1
    38    19    45    1
    39    20    22    1
    40    20    46    1
    41    21    47    1
    42    22    50    1
    43    22    51    1
    44    23    24    1
    45    23    25    1
    46    23    48    1
    47    24    26    1
    48    24    49    1
    49    25    27    1
    50    25    52    1
    51    26    53    1
    52    27    54    1
    53    27    55    1
    54    28    31   ar
    55    28    33   ar
    56    29    30   ar
    57    29    34   ar
    58    30    32   ar
    59    31    36    1
    60    32    33   ar
    61    32    35   ar
    62    34    37   ar
    63    35    37   ar
    64    36    38   ar
    65    36    39   ar
    66    37    63    1
    67    38    40   ar
    68    38    64    1
    69    39    41   ar
    70    39    65    1
    71    40    42   ar
    72    40    68    1
    73    41    42   ar
    74    41    69    1
