@<TRIPOS>MOLECULE
IMPHY002151
 28 28 0 0 0
SMALL
GASTEIGER

@<TRIPOS>ATOM
      1 O           2.4608   -0.0804    0.0000 O.3     1  UNL1       -0.4806
      2 O           3.6197   -1.3675    0.0000 O.2     1  UNL1       -0.2510
      3 C           5.9150    0.5585    0.0000 C.3     1  UNL1       -0.0106
      4 C           5.1060   -0.0293    0.0000 C.3     1  UNL1       -0.0187
      5 C           5.4150   -0.9803    0.0000 C.3     1  UNL1       -0.0304
      6 C           6.7240   -0.0293    0.0000 C.2     1  UNL1       -0.0706
      7 C           4.1550    0.2797    0.0000 C.3     1  UNL1        0.0486
      8 C           6.4150   -0.9803    0.0000 C.2     1  UNL1       -0.0842
      9 C           6.5028    1.3675    0.0000 C.3     1  UNL1       -0.0558
     10 C           5.3272    1.3675    0.0000 C.3     1  UNL1       -0.0558
     11 C           7.6751    0.2797    0.0000 C.3     1  UNL1       -0.0433
     12 C           3.4118   -0.3894    0.0000 C.2     1  UNL1        0.3050
     13 H           4.6676   -0.4677    0.0000 H       1  UNL1        0.0317
     14 H           4.8086   -1.1092    0.0000 H       1  UNL1        0.0310
     15 H           5.4798   -1.5969    0.0000 H       1  UNL1        0.0310
     16 H           4.4460    0.8272    0.0000 H       1  UNL1        0.0381
     17 H           3.6664    0.6615    0.0000 H       1  UNL1        0.0381
     18 H           6.7794   -1.4819    0.0000 H       1  UNL1        0.0572
     19 H           7.0044    1.0031    0.0000 H       1  UNL1        0.0238
     20 H           6.8672    1.8691    0.0000 H       1  UNL1        0.0238
     21 H           5.8288    1.7320    0.0000 H       1  UNL1        0.0238
     22 H           4.9628    1.8691    0.0000 H       1  UNL1        0.0238
     23 H           4.8257    1.0031    0.0000 H       1  UNL1        0.0238
     24 H           6.0012    1.7320    0.0000 H       1  UNL1        0.0238
     25 H           7.8667   -0.3099    0.0000 H       1  UNL1        0.0275
     26 H           8.2648    0.4713    0.0000 H       1  UNL1        0.0275
     27 H           7.4835    0.8694    0.0000 H       1  UNL1        0.0275
     28 H           2.0000   -0.4952    0.0000 H       1  UNL1        0.2951
@<TRIPOS>BOND
     1     1    12    1
     2     1    28    1
     3     2    12    2
     4     3     4    1
     5     3     6    1
     6     3     9    1
     7     3    10    1
     8     4     5    1
     9     4     7    1
    10     4    13    1
    11     5     8    1
    12     5    14    1
    13     5    15    1
    14     6     8    2
    15     6    11    1
    16     7    12    1
    17     7    16    1
    18     7    17    1
    19     8    18    1
    20     9    19    1
    21     9    20    1
    22     9    24    1
    23    10    21    1
    24    10    22    1
    25    10    23    1
    26    11    25    1
    27    11    26    1
    28    11    27    1
