@<TRIPOS>MOLECULE
IMPHY017222
 44 46 0 0 0
SMALL
GASTEIGER

@<TRIPOS>ATOM
      1 O           2.0000   -2.2798    0.0000 O.2     1  UNL1       -0.2927
      2 C           6.0478    0.3339    0.0000 C.3     1  UNL1       -0.0286
      3 C           6.3066    1.2998    0.0000 C.3     1  UNL1       -0.0258
      4 C           5.5700    2.2824    0.0000 C.3     1  UNL1       -0.0261
      5 C           4.8268   -0.5318    0.0000 C.3     1  UNL1       -0.0181
      6 C           7.4467    0.3427    0.0000 C.3     1  UNL1       -0.0432
      7 C           3.9977    0.0274    0.0000 C.3     1  UNL1       -0.0130
      8 C           4.2733    0.9887    0.0000 C.3     1  UNL1       -0.0400
      9 C           4.5503   -1.4867    0.0000 C.3     1  UNL1       -0.0182
     10 C           6.5654    2.2657    0.0000 C.3     1  UNL1       -0.0590
     11 C           5.8288    3.2483    0.0000 C.3     1  UNL1       -0.0590
     12 C           4.6040    2.5412    0.0000 C.3     1  UNL1       -0.0590
     13 C           3.2160   -0.5867    0.0000 C.2     1  UNL1       -0.0625
     14 C           5.6558   -1.0910    0.0000 C.3     1  UNL1       -0.0584
     15 C           3.5568   -1.5205    0.0000 C.2     1  UNL1       -0.0055
     16 C           2.2542   -0.3127    0.0000 C.3     1  UNL1       -0.0429
     17 C           2.9976   -2.3495    0.0000 C.2     1  UNL1        0.1562
     18 C           3.4359   -3.2483    0.0000 C.3     1  UNL1       -0.0017
     19 H           6.2378   -0.2563    0.0000 H       1  UNL1        0.0312
     20 H           7.6270   -0.2505    0.0000 H       1  UNL1        0.0274
     21 H           7.9640    0.6844    0.0000 H       1  UNL1        0.0274
     22 H           3.4832    0.3734    0.0000 H       1  UNL1        0.0351
     23 H           4.2683    1.6086    0.0000 H       1  UNL1        0.0277
     24 H           3.6590    1.0724    0.0000 H       1  UNL1        0.0277
     25 H           4.5061   -2.1051    0.0000 H       1  UNL1        0.0320
     26 H           5.1606   -1.5956    0.0000 H       1  UNL1        0.0320
     27 H           7.1643    2.1052    0.0000 H       1  UNL1        0.0235
     28 H           6.7259    2.8646    0.0000 H       1  UNL1        0.0235
     29 H           5.9665    2.4262    0.0000 H       1  UNL1        0.0235
     30 H           6.4277    3.0879    0.0000 H       1  UNL1        0.0235
     31 H           5.9893    3.8472    0.0000 H       1  UNL1        0.0235
     32 H           5.2299    3.4088    0.0000 H       1  UNL1        0.0235
     33 H           4.7645    3.1401    0.0000 H       1  UNL1        0.0235
     34 H           4.0052    2.7017    0.0000 H       1  UNL1        0.0235
     35 H           4.4436    1.9423    0.0000 H       1  UNL1        0.0235
     36 H           5.3091   -1.6050    0.0000 H       1  UNL1        0.0235
     37 H           6.1698   -1.4377    0.0000 H       1  UNL1        0.0235
     38 H           6.0025   -0.5770    0.0000 H       1  UNL1        0.0235
     39 H           2.4241    0.2836    0.0000 H       1  UNL1        0.0275
     40 H           1.6579   -0.1428    0.0000 H       1  UNL1        0.0275
     41 H           2.0844   -0.9090    0.0000 H       1  UNL1        0.0275
     42 H           2.8787   -3.5201    0.0000 H       1  UNL1        0.0309
     43 H           3.7077   -3.8056    0.0000 H       1  UNL1        0.0309
     44 H           3.9932   -2.9765    0.0000 H       1  UNL1        0.0309
@<TRIPOS>BOND
     1     1    17    2
     2     2     4    1
     3     2     5    1
     4     2     6    1
     5     2    19    1
     6     3     4    1
     7     3     6    1
     8     3     8    1
     9     3    10    1
    10     4    11    1
    11     4    12    1
    12     5     7    1
    13     5     9    1
    14     5    14    1
    15     6    20    1
    16     6    21    1
    17     7     8    1
    18     7    13    1
    19     7    22    1
    20     8    23    1
    21     8    24    1
    22     9    15    1
    23     9    25    1
    24     9    26    1
    25    10    27    1
    26    10    28    1
    27    10    29    1
    28    11    30    1
    29    11    31    1
    30    11    32    1
    31    12    33    1
    32    12    34    1
    33    12    35    1
    34    13    15    2
    35    13    16    1
    36    14    36    1
    37    14    37    1
    38    14    38    1
    39    15    17    1
    40    16    39    1
    41    16    40    1
    42    16    41    1
    43    17    18    1
    44    18    42    1
    45    18    43    1
    46    18    44    1
