@<TRIPOS>MOLECULE
IMPHY001475
 100 103 0 0 0
SMALL
GASTEIGER

@<TRIPOS>ATOM
      1 O           5.4646   -4.8173    0.0000 O.3     1  UNL1       -0.3565
      2 O          20.8320    4.5102    0.0000 O.3     1  UNL1       -0.3626
      3 O           2.0000   -5.8173    0.0000 O.3     1  UNL1       -0.3917
      4 O          17.0570    5.8286    0.0000 O.3     1  UNL1       -0.3856
      5 C           4.5981   -4.3173    0.0000 C.3     1  UNL1        0.1224
      6 C           4.5981   -5.3173    0.0000 C.3     1  UNL1        0.1032
      7 C           3.7320   -3.8173    0.0000 C.3     1  UNL1        0.0029
      8 C           3.7320   -5.8173    0.0000 C.3     1  UNL1        0.0052
      9 C           2.8660   -4.3173    0.0000 C.3     1  UNL1       -0.0186
     10 C           2.8660   -5.3173    0.0000 C.3     1  UNL1        0.0585
     11 C          18.8641    4.1198    0.0000 C.3     1  UNL1        0.1217
     12 C          18.9077    2.6255    0.0000 C.3     1  UNL1        0.0028
     13 C          17.8118    5.1726    0.0000 C.3     1  UNL1        0.0985
     14 C           4.5981   -6.3173    0.0000 C.3     1  UNL1       -0.0326
     15 C          19.6302    4.7626    0.0000 C.3     1  UNL1        0.0633
     16 C           5.0981   -3.4512    0.0000 C.2     1  UNL1       -0.0491
     17 C          19.9039    2.7126    0.0000 C.3     1  UNL1       -0.0183
     18 C           2.8660   -3.3173    0.0000 C.3     1  UNL1       -0.0567
     19 C           3.7320   -2.8173    0.0000 C.3     1  UNL1       -0.0567
     20 C          18.5778    5.8154    0.0000 C.3     1  UNL1        0.0052
     21 C          18.8379    1.6279    0.0000 C.3     1  UNL1       -0.0567
     22 C          18.0786    2.0663    0.0000 C.3     1  UNL1       -0.0567
     23 C          18.0981    3.4770    0.0000 C.2     1  UNL1       -0.0491
     24 C          16.9546    4.6575    0.0000 C.3     1  UNL1       -0.0329
     25 C           6.0981   -3.4512    0.0000 C.2     1  UNL1       -0.0600
     26 C          17.0981    3.4770    0.0000 C.2     1  UNL1       -0.0600
     27 C           6.5981   -2.5852    0.0000 C.2     1  UNL1       -0.0507
     28 C          16.5981    2.6109    0.0000 C.2     1  UNL1       -0.0507
     29 C           6.0981   -1.7192    0.0000 C.3     1  UNL1       -0.0397
     30 C           7.5981   -2.5852    0.0000 C.2     1  UNL1       -0.0588
     31 C          17.0981    1.7449    0.0000 C.3     1  UNL1       -0.0397
     32 C          15.5981    2.6109    0.0000 C.2     1  UNL1       -0.0588
     33 C           8.0981   -1.7192    0.0000 C.2     1  UNL1       -0.0613
     34 C          15.0981    1.7449    0.0000 C.2     1  UNL1       -0.0613
     35 C           9.0981   -1.7192    0.0000 C.2     1  UNL1       -0.0588
     36 C          14.0981    1.7449    0.0000 C.2     1  UNL1       -0.0588
     37 C           9.5981   -0.8532    0.0000 C.2     1  UNL1       -0.0504
     38 C          13.5981    0.8789    0.0000 C.2     1  UNL1       -0.0504
     39 C           9.0981    0.0129    0.0000 C.3     1  UNL1       -0.0397
     40 C          10.5981   -0.8532    0.0000 C.2     1  UNL1       -0.0588
     41 C          12.5981    0.8789    0.0000 C.2     1  UNL1       -0.0588
     42 C          14.0981    0.0129    0.0000 C.3     1  UNL1       -0.0397
     43 C          11.0981    0.0129    0.0000 C.2     1  UNL1       -0.0615
     44 C          12.0981    0.0129    0.0000 C.2     1  UNL1       -0.0615
     45 H           3.3335   -6.2922    0.0000 H       1  UNL1        0.0319
     46 H           4.1306   -6.2922    0.0000 H       1  UNL1        0.0319
     47 H           2.6540   -3.7346    0.0000 H       1  UNL1        0.0296
     48 H           2.2554   -4.4249    0.0000 H       1  UNL1        0.0296
     49 H           2.8660   -5.9373    0.0000 H       1  UNL1        0.0594
     50 H           3.9781   -6.3173    0.0000 H       1  UNL1        0.0258
     51 H           4.5981   -6.9373    0.0000 H       1  UNL1        0.0258
     52 H           5.2181   -6.3173    0.0000 H       1  UNL1        0.0258
     53 H          20.2813    5.3089    0.0000 H       1  UNL1        0.0597
     54 H           4.7881   -2.9143    0.0000 H       1  UNL1        0.0602
     55 H          19.9673    2.0959    0.0000 H       1  UNL1        0.0296
     56 H          20.5196    2.7854    0.0000 H       1  UNL1        0.0296
     57 H           4.3520   -2.8173    0.0000 H       1  UNL1        0.0236
     58 H           3.7320   -2.1973    0.0000 H       1  UNL1        0.0236
     59 H           3.1120   -2.8173    0.0000 H       1  UNL1        0.0236
     60 H           3.1760   -2.7803    0.0000 H       1  UNL1        0.0236
     61 H           2.3291   -3.0073    0.0000 H       1  UNL1        0.0236
     62 H           2.5560   -3.8542    0.0000 H       1  UNL1        0.0236
     63 H          19.0288    6.2408    0.0000 H       1  UNL1        0.0319
     64 H          18.1657    6.2786    0.0000 H       1  UNL1        0.0319
     65 H          18.2195    1.6712    0.0000 H       1  UNL1        0.0236
     66 H          18.7947    1.0094    0.0000 H       1  UNL1        0.0236
     67 H          19.4564    1.5846    0.0000 H       1  UNL1        0.0236
     68 H          17.7320    2.5804    0.0000 H       1  UNL1        0.0236
     69 H          17.5646    1.7197    0.0000 H       1  UNL1        0.0236
     70 H          18.4253    1.5523    0.0000 H       1  UNL1        0.0236
     71 H          18.3101    2.8944    0.0000 H       1  UNL1        0.0602
     72 H          16.6353    5.1890    0.0000 H       1  UNL1        0.0258
     73 H          16.4231    4.3382    0.0000 H       1  UNL1        0.0258
     74 H          17.2739    4.1261    0.0000 H       1  UNL1        0.0258
     75 H           2.0000   -6.4373    0.0000 H       1  UNL1        0.2098
     76 H           6.4081   -3.9882    0.0000 H       1  UNL1        0.0618
     77 H          17.1753    6.4373    0.0000 H       1  UNL1        0.2103
     78 H          16.7881    4.0139    0.0000 H       1  UNL1        0.0618
     79 H           6.6350   -1.4092    0.0000 H       1  UNL1        0.0278
     80 H           5.7881   -1.1822    0.0000 H       1  UNL1        0.0278
     81 H           5.5611   -2.0292    0.0000 H       1  UNL1        0.0278
     82 H           7.9081   -3.1221    0.0000 H       1  UNL1        0.0620
     83 H          16.5611    1.4349    0.0000 H       1  UNL1        0.0278
     84 H          17.4081    1.2080    0.0000 H       1  UNL1        0.0278
     85 H          17.6350    2.0549    0.0000 H       1  UNL1        0.0278
     86 H          15.2881    3.1479    0.0000 H       1  UNL1        0.0620
     87 H           7.7881   -1.1822    0.0000 H       1  UNL1        0.0618
     88 H          15.4081    1.2080    0.0000 H       1  UNL1        0.0618
     89 H           9.4081   -2.2561    0.0000 H       1  UNL1        0.0620
     90 H          13.7881    2.2819    0.0000 H       1  UNL1        0.0620
     91 H           9.6350    0.3229    0.0000 H       1  UNL1        0.0278
     92 H           8.7881    0.5498    0.0000 H       1  UNL1        0.0278
     93 H           8.5611   -0.2971    0.0000 H       1  UNL1        0.0278
     94 H          10.9081   -1.3901    0.0000 H       1  UNL1        0.0620
     95 H          12.2881    1.4158    0.0000 H       1  UNL1        0.0620
     96 H          13.5611   -0.2971    0.0000 H       1  UNL1        0.0278
     97 H          14.4081   -0.5241    0.0000 H       1  UNL1        0.0278
     98 H          14.6350    0.3229    0.0000 H       1  UNL1        0.0278
     99 H          10.7881    0.5498    0.0000 H       1  UNL1        0.0618
    100 H          12.4081   -0.5241    0.0000 H       1  UNL1        0.0618
@<TRIPOS>BOND
     1     1     5    1
     2     1     6    1
     3     2    11    1
     4     2    15    1
     5    10     3    1
     6     3    75    1
     7    13     4    1
     8     4    77    1
     9     5     6    1
    10     5     7    1
    11     5    16    1
    12     6     8    1
    13     6    14    1
    14     7     9    1
    15     7    18    1
    16     7    19    1
    17     8    10    1
    18     8    45    1
    19     8    46    1
    20     9    10    1
    21     9    47    1
    22     9    48    1
    23    10    49    1
    24    11    12    1
    25    11    13    1
    26    11    23    1
    27    12    17    1
    28    12    21    1
    29    12    22    1
    30    13    20    1
    31    13    24    1
    32    14    50    1
    33    14    51    1
    34    14    52    1
    35    15    17    1
    36    15    20    1
    37    15    53    1
    38    16    25    2
    39    16    54    1
    40    17    55    1
    41    17    56    1
    42    18    60    1
    43    18    61    1
    44    18    62    1
    45    19    57    1
    46    19    58    1
    47    19    59    1
    48    20    63    1
    49    20    64    1
    50    21    65    1
    51    21    66    1
    52    21    67    1
    53    22    68    1
    54    22    69    1
    55    22    70    1
    56    23    26    2
    57    23    71    1
    58    24    72    1
    59    24    73    1
    60    24    74    1
    61    25    27    1
    62    25    76    1
    63    26    28    1
    64    26    78    1
    65    27    29    1
    66    27    30    2
    67    28    31    1
    68    28    32    2
    69    29    79    1
    70    29    80    1
    71    29    81    1
    72    30    33    1
    73    30    82    1
    74    31    83    1
    75    31    84    1
    76    31    85    1
    77    32    34    1
    78    32    86    1
    79    33    35    2
    80    33    87    1
    81    34    36    2
    82    34    88    1
    83    35    37    1
    84    35    89    1
    85    36    38    1
    86    36    90    1
    87    37    39    1
    88    37    40    2
    89    38    41    2
    90    38    42    1
    91    39    91    1
    92    39    92    1
    93    39    93    1
    94    40    43    1
    95    40    94    1
    96    41    44    1
    97    41    95    1
    98    42    96    1
    99    42    97    1
   100    42    98    1
   101    43    44    2
   102    43    99    1
   103    44   100    1
