@<TRIPOS>MOLECULE
IMPHY009963
 90 94 0 0 0
SMALL
GASTEIGER

@<TRIPOS>ATOM
      1 O           8.2629    0.6146    0.0000 O.3     1  UNL1       -0.3912
      2 O           5.4679   -2.9377    0.0000 O.3     1  UNL1       -0.4578
      3 O           9.1169   -3.9546    0.0000 O.2     1  UNL1       -0.2924
      4 O           4.6077   -1.4344    0.0000 O.2     1  UNL1       -0.2450
      5 C          10.8610    0.1146    0.0000 C.3     1  UNL1       -0.0167
      6 C          10.8610   -0.8854    0.0000 C.3     1  UNL1       -0.0131
      7 C           9.1290   -0.8854    0.0000 C.3     1  UNL1        0.0128
      8 C           8.2190   -1.3922    0.0000 C.3     1  UNL1       -0.0132
      9 C          11.8072    0.4194    0.0000 C.3     1  UNL1       -0.0141
     10 C           9.9950   -1.3854    0.0000 C.2     1  UNL1       -0.0566
     11 C           9.9950    0.6146    0.0000 C.3     1  UNL1       -0.0198
     12 C           9.1290    0.1146    0.0000 C.3     1  UNL1        0.0628
     13 C          11.8072   -1.1901    0.0000 C.3     1  UNL1       -0.0454
     14 C           8.2109   -2.4338    0.0000 C.3     1  UNL1        0.0309
     15 C          12.3908   -0.3854    0.0000 C.3     1  UNL1       -0.0454
     16 C           7.2921   -0.8281    0.0000 C.3     1  UNL1       -0.0430
     17 C          10.8610    1.1146    0.0000 C.3     1  UNL1       -0.0584
     18 C           7.2755   -2.9835    0.0000 C.3     1  UNL1       -0.0053
     19 C          10.0110   -2.4269    0.0000 C.2     1  UNL1       -0.0190
     20 C           8.2267   -0.3922    0.0000 C.3     1  UNL1       -0.0583
     21 C           9.1130   -2.9546    0.0000 C.2     1  UNL1        0.1598
     22 C           6.3442   -1.3561    0.0000 C.3     1  UNL1       -0.0151
     23 C          12.1179    1.3699    0.0000 C.2     1  UNL1       -0.0730
     24 C           6.3359   -2.4410    0.0000 C.3     1  UNL1        0.1041
     25 C          13.0964    1.5761    0.0000 C.3     1  UNL1       -0.0315
     26 C          11.4501    2.1142    0.0000 C.2     1  UNL1       -0.0992
     27 C          13.4071    2.5266    0.0000 C.3     1  UNL1       -0.0463
     28 C          14.3856    2.7328    0.0000 C.3     1  UNL1       -0.0387
     29 C           4.6038   -2.4344    0.0000 C.2     1  UNL1        0.3394
     30 C          14.6962    3.6834    0.0000 C.3     1  UNL1       -0.0439
     31 C          15.0534    1.9886    0.0000 C.3     1  UNL1       -0.0528
     32 C           3.7359   -2.9310    0.0000 C.ar    1  UNL1        0.0590
     33 C          15.6747    3.8896    0.0000 C.3     1  UNL1       -0.0624
     34 C          14.0284    4.4277    0.0000 C.3     1  UNL1       -0.0624
     35 C          16.0319    2.1948    0.0000 C.3     1  UNL1       -0.0650
     36 C           2.8718   -2.4277    0.0000 C.ar    1  UNL1       -0.0478
     37 C           3.7320   -3.9310    0.0000 C.ar    1  UNL1       -0.0478
     38 C           2.0038   -2.9243    0.0000 C.ar    1  UNL1       -0.0610
     39 C           2.8641   -4.4277    0.0000 C.ar    1  UNL1       -0.0610
     40 C           2.0000   -3.9243    0.0000 C.ar    1  UNL1       -0.0617
     41 H          10.9510   -1.7306    0.0000 H       1  UNL1        0.0351
     42 H           9.8651   -0.4604    0.0000 H       1  UNL1        0.0376
     43 H          12.4197    0.5156    0.0000 H       1  UNL1        0.0351
     44 H          10.3935    1.0896    0.0000 H       1  UNL1        0.0296
     45 H           9.5965    1.0896    0.0000 H       1  UNL1        0.0296
     46 H           8.5920   -0.1954    0.0000 H       1  UNL1        0.0599
     47 H          11.5562   -1.7570    0.0000 H       1  UNL1        0.0271
     48 H          12.3446   -1.4993    0.0000 H       1  UNL1        0.0271
     49 H           8.2142   -3.2838    0.0000 H       1  UNL1        0.0387
     50 H          12.8517   -0.8001    0.0000 H       1  UNL1        0.0271
     51 H          12.8517    0.0294    0.0000 H       1  UNL1        0.0271
     52 H           7.7003   -0.3615    0.0000 H       1  UNL1        0.0272
     53 H           6.9022   -0.3461    0.0000 H       1  UNL1        0.0272
     54 H          11.4810    1.1146    0.0000 H       1  UNL1        0.0235
     55 H          10.8610    1.7346    0.0000 H       1  UNL1        0.0235
     56 H          10.2410    1.1146    0.0000 H       1  UNL1        0.0235
     57 H           6.8782   -3.4595    0.0000 H       1  UNL1        0.0308
     58 H           7.6765   -3.4564    0.0000 H       1  UNL1        0.0308
     59 H          10.5515   -2.7306    0.0000 H       1  UNL1        0.0652
     60 H           8.8466   -0.3970    0.0000 H       1  UNL1        0.0235
     61 H           8.2314    0.2277    0.0000 H       1  UNL1        0.0235
     62 H           7.6067   -0.3875    0.0000 H       1  UNL1        0.0235
     63 H           6.1397   -0.7708    0.0000 H       1  UNL1        0.0301
     64 H           5.7326   -1.4574    0.0000 H       1  UNL1        0.0301
     65 H           6.3347   -3.0610    0.0000 H       1  UNL1        0.0734
     66 H           8.2629    1.2346    0.0000 H       1  UNL1        0.2098
     67 H          13.1170    0.9564    0.0000 H       1  UNL1        0.0310
     68 H          13.7102    1.4888    0.0000 H       1  UNL1        0.0310
     69 H          11.6427    2.7035    0.0000 H       1  UNL1        0.0534
     70 H          10.8434    1.9863    0.0000 H       1  UNL1        0.0534
     71 H          13.3865    3.1463    0.0000 H       1  UNL1        0.0271
     72 H          12.7932    2.6140    0.0000 H       1  UNL1        0.0271
     73 H          13.9715    3.1943    0.0000 H       1  UNL1        0.0303
     74 H          15.1103    3.2219    0.0000 H       1  UNL1        0.0298
     75 H          14.5271    1.6609    0.0000 H       1  UNL1        0.0265
     76 H          15.2847    1.4133    0.0000 H       1  UNL1        0.0265
     77 H          15.8026    3.2829    0.0000 H       1  UNL1        0.0232
     78 H          16.2814    4.0174    0.0000 H       1  UNL1        0.0232
     79 H          15.5469    4.4963    0.0000 H       1  UNL1        0.0232
     80 H          14.4899    4.8417    0.0000 H       1  UNL1        0.0232
     81 H          13.6143    4.8891    0.0000 H       1  UNL1        0.0232
     82 H          13.5669    4.0136    0.0000 H       1  UNL1        0.0232
     83 H          16.1598    1.5881    0.0000 H       1  UNL1        0.0230
     84 H          16.6386    2.3226    0.0000 H       1  UNL1        0.0230
     85 H          15.9041    2.8014    0.0000 H       1  UNL1        0.0230
     86 H           2.8742   -1.8077    0.0000 H       1  UNL1        0.0626
     87 H           4.2678   -4.2431    0.0000 H       1  UNL1        0.0626
     88 H           1.4681   -2.6123    0.0000 H       1  UNL1        0.0618
     89 H           2.8617   -5.0477    0.0000 H       1  UNL1        0.0618
     90 H           1.4619   -4.2323    0.0000 H       1  UNL1        0.0618
@<TRIPOS>BOND
     1    12     1    1
     2     1    66    1
     3    24     2    1
     4     2    29    1
     5     3    21    2
     6     4    29    2
     7     5     6    1
     8     5     9    1
     9     5    11    1
    10     5    17    1
    11     6    10    1
    12     6    13    1
    13     6    41    1
    14     7     8    1
    15     7    10    1
    16     7    12    1
    17     7    42    1
    18     8    14    1
    19     8    16    1
    20     8    20    1
    21     9    15    1
    22     9    23    1
    23     9    43    1
    24    10    19    2
    25    11    12    1
    26    11    44    1
    27    11    45    1
    28    12    46    1
    29    13    15    1
    30    13    47    1
    31    13    48    1
    32    14    18    1
    33    14    21    1
    34    14    49    1
    35    15    50    1
    36    15    51    1
    37    16    22    1
    38    16    52    1
    39    16    53    1
    40    17    54    1
    41    17    55    1
    42    17    56    1
    43    18    24    1
    44    18    57    1
    45    18    58    1
    46    19    21    1
    47    19    59    1
    48    20    60    1
    49    20    61    1
    50    20    62    1
    51    22    24    1
    52    22    63    1
    53    22    64    1
    54    23    25    1
    55    23    26    2
    56    24    65    1
    57    25    27    1
    58    25    67    1
    59    25    68    1
    60    26    69    1
    61    26    70    1
    62    28    27    1
    63    27    71    1
    64    27    72    1
    65    28    30    1
    66    28    31    1
    67    28    73    1
    68    29    32    1
    69    30    33    1
    70    30    34    1
    71    30    74    1
    72    31    35    1
    73    31    75    1
    74    31    76    1
    75    32    36   ar
    76    32    37   ar
    77    33    77    1
    78    33    78    1
    79    33    79    1
    80    34    80    1
    81    34    81    1
    82    34    82    1
    83    35    83    1
    84    35    84    1
    85    35    85    1
    86    36    38   ar
    87    36    86    1
    88    37    39   ar
    89    37    87    1
    90    38    40   ar
    91    38    88    1
    92    39    40   ar
    93    39    89    1
    94    40    90    1
