@<TRIPOS>MOLECULE
IMPHY003616
 39 40 0 0 0
SMALL
GASTEIGER

@<TRIPOS>ATOM
      1 C           5.4644    1.1272    0.0000 C.3     1  UNL1       -0.0250
      2 C           5.4641    0.1268    0.0000 C.3     1  UNL1       -0.0283
      3 C           4.5981    0.6268    0.0000 C.3     1  UNL1       -0.0139
      4 C           5.4641   -0.8732    0.0000 C.3     1  UNL1       -0.0455
      5 C           6.4644    1.1272    0.0000 C.3     1  UNL1       -0.0590
      6 C           4.9644    1.9932    0.0000 C.3     1  UNL1       -0.0590
      7 C           3.7320    0.1268    0.0000 C.2     1  UNL1       -0.0811
      8 C           4.5981   -1.3732    0.0000 C.3     1  UNL1       -0.0317
      9 C           2.8660    0.6268    0.0000 C.2     1  UNL1       -0.0760
     10 C           3.7320   -0.8732    0.0000 C.2     1  UNL1       -0.0765
     11 C           2.0000    0.1268    0.0000 C.3     1  UNL1       -0.0286
     12 C           2.0000   -0.8732    0.0000 C.3     1  UNL1       -0.0308
     13 C           2.8660    1.6268    0.0000 C.3     1  UNL1       -0.0438
     14 C           2.8660   -1.3732    0.0000 C.2     1  UNL1       -0.0847
     15 C           3.4629    0.6532    0.0000 C.3     1  UNL1       -0.0438
     16 H           6.3141    0.1267    0.0000 H       1  UNL1        0.0312
     17 H           4.1730    1.3628    0.0000 H       1  UNL1        0.0351
     18 H           5.6762   -1.4558    0.0000 H       1  UNL1        0.0271
     19 H           6.0747   -0.7656    0.0000 H       1  UNL1        0.0271
     20 H           6.4644    0.5072    0.0000 H       1  UNL1        0.0235
     21 H           7.0844    1.1272    0.0000 H       1  UNL1        0.0235
     22 H           6.4644    1.7472    0.0000 H       1  UNL1        0.0235
     23 H           5.5013    2.3032    0.0000 H       1  UNL1        0.0235
     24 H           4.6544    2.5302    0.0000 H       1  UNL1        0.0235
     25 H           4.4274    1.6832    0.0000 H       1  UNL1        0.0235
     26 H           4.1307   -0.3481    0.0000 H       1  UNL1        0.0575
     27 H           4.1996   -1.8482    0.0000 H       1  UNL1        0.0310
     28 H           4.9966   -1.8482    0.0000 H       1  UNL1        0.0310
     29 H           1.7880    0.7094    0.0000 H       1  UNL1        0.0313
     30 H           1.3894    0.0191    0.0000 H       1  UNL1        0.0313
     31 H           1.3894   -0.7656    0.0000 H       1  UNL1        0.0310
     32 H           1.7880   -1.4558    0.0000 H       1  UNL1        0.0310
     33 H           3.4860    1.6268    0.0000 H       1  UNL1        0.0274
     34 H           2.8660    2.2468    0.0000 H       1  UNL1        0.0274
     35 H           2.2460    1.6268    0.0000 H       1  UNL1        0.0274
     36 H           2.8660   -1.9932    0.0000 H       1  UNL1        0.0572
     37 H           4.0735    0.7609    0.0000 H       1  UNL1        0.0274
     38 H           3.3552    1.2638    0.0000 H       1  UNL1        0.0274
     39 H           2.8523    0.5456    0.0000 H       1  UNL1        0.0274
@<TRIPOS>BOND
     1     1     2    1
     2     1     3    1
     3     1     5    1
     4     1     6    1
     5     2     3    1
     6     2     4    1
     7     2    16    1
     8     3     7    1
     9     3    17    1
    10     4     8    1
    11     4    18    1
    12     4    19    1
    13     5    20    1
    14     5    21    1
    15     5    22    1
    16     6    23    1
    17     6    24    1
    18     6    25    1
    19     7     9    2
    20     7    26    1
    21     8    10    1
    22     8    27    1
    23     8    28    1
    24     9    11    1
    25     9    13    1
    26    10    14    2
    27    10    15    1
    28    11    12    1
    29    11    29    1
    30    11    30    1
    31    12    14    1
    32    12    31    1
    33    12    32    1
    34    13    33    1
    35    13    34    1
    36    13    35    1
    37    14    36    1
    38    15    37    1
    39    15    38    1
    40    15    39    1
