@<TRIPOS>MOLECULE
IMPHY015212
 35 34 0 0 0
SMALL
GASTEIGER

@<TRIPOS>ATOM
      1 C           6.3301   -0.3170    0.0000 C.3     1  UNL1       -0.0325
      2 C           7.1962    0.1830    0.0000 C.3     1  UNL1       -0.0416
      3 C           5.4641   -0.8170    0.0000 C.3     1  UNL1       -0.0476
      4 C           4.5981   -0.3170    0.0000 C.3     1  UNL1       -0.0526
      5 C           5.8301    0.5490    0.0000 C.3     1  UNL1       -0.0596
      6 C           6.8301   -1.1830    0.0000 C.3     1  UNL1       -0.0596
      7 C           8.0622   -0.3170    0.0000 C.3     1  UNL1       -0.0622
      8 C           7.1962    1.1830    0.0000 C.3     1  UNL1       -0.0622
      9 C           3.7320   -0.8170    0.0000 C.3     1  UNL1       -0.0533
     10 C           2.8660   -0.3170    0.0000 C.3     1  UNL1       -0.0559
     11 C           2.0000   -0.8170    0.0000 C.3     1  UNL1       -0.0653
     12 H           6.6592    0.4930    0.0000 H       1  UNL1        0.0301
     13 H           5.0656   -1.2919    0.0000 H       1  UNL1        0.0271
     14 H           5.8626   -1.2919    0.0000 H       1  UNL1        0.0271
     15 H           4.9966    0.1580    0.0000 H       1  UNL1        0.0265
     16 H           4.1996    0.1580    0.0000 H       1  UNL1        0.0265
     17 H           6.3671    0.8590    0.0000 H       1  UNL1        0.0235
     18 H           5.5201    1.0860    0.0000 H       1  UNL1        0.0235
     19 H           5.2932    0.2390    0.0000 H       1  UNL1        0.0235
     20 H           6.2932   -1.4930    0.0000 H       1  UNL1        0.0235
     21 H           7.1401   -1.7200    0.0000 H       1  UNL1        0.0235
     22 H           7.3671   -0.8730    0.0000 H       1  UNL1        0.0235
     23 H           7.7522   -0.8539    0.0000 H       1  UNL1        0.0233
     24 H           8.5991   -0.6270    0.0000 H       1  UNL1        0.0233
     25 H           8.3722    0.2199    0.0000 H       1  UNL1        0.0233
     26 H           7.8162    1.1830    0.0000 H       1  UNL1        0.0233
     27 H           7.1962    1.8030    0.0000 H       1  UNL1        0.0233
     28 H           6.5762    1.1830    0.0000 H       1  UNL1        0.0233
     29 H           3.3335   -1.2919    0.0000 H       1  UNL1        0.0265
     30 H           4.1306   -1.2919    0.0000 H       1  UNL1        0.0265
     31 H           3.2646    0.1580    0.0000 H       1  UNL1        0.0263
     32 H           2.4675    0.1580    0.0000 H       1  UNL1        0.0263
     33 H           1.6900   -0.2801    0.0000 H       1  UNL1        0.0230
     34 H           1.4631   -1.1270    0.0000 H       1  UNL1        0.0230
     35 H           2.3100   -1.3539    0.0000 H       1  UNL1        0.0230
@<TRIPOS>BOND
     1     1     2    1
     2     1     3    1
     3     1     5    1
     4     1     6    1
     5     2     7    1
     6     2     8    1
     7     2    12    1
     8     3     4    1
     9     3    13    1
    10     3    14    1
    11     4     9    1
    12     4    15    1
    13     4    16    1
    14     5    17    1
    15     5    18    1
    16     5    19    1
    17     6    20    1
    18     6    21    1
    19     6    22    1
    20     7    23    1
    21     7    24    1
    22     7    25    1
    23     8    26    1
    24     8    27    1
    25     8    28    1
    26     9    10    1
    27     9    29    1
    28     9    30    1
    29    10    11    1
    30    10    31    1
    31    10    32    1
    32    11    33    1
    33    11    34    1
    34    11    35    1
