@<TRIPOS>MOLECULE
IMPHY001542
 102 107 0 0 0
SMALL
GASTEIGER

@<TRIPOS>ATOM
      1 O           6.7852    0.8351    0.0000 O.3     1  UNL1       -0.3585
      2 O           9.5679   -0.0340    0.0000 O.3     1  UNL1       -0.4581
      3 O           5.1720   -0.5675    0.0000 O.3     1  UNL1       -0.3888
      4 O           5.1643    1.4324    0.0000 O.3     1  UNL1       -0.3858
      5 O           8.6084    2.4893    0.0000 O.3     1  UNL1       -0.4464
      6 O           6.8896    3.1712    0.0000 O.3     1  UNL1       -0.4659
      7 O           5.3930    2.2994    0.0000 O.2     1  UNL1       -0.2475
      8 O          10.4016    1.5185    0.0000 O.2     1  UNL1       -0.2466
      9 O           6.8671   -4.7578    0.0000 O.2     1  UNL1       -0.4574
     10 O           5.0597   -3.7049    0.0000 O.2     1  UNL1       -0.2888
     11 O          10.3396    2.5434    0.0000 O.2     1  UNL1       -0.2456
     12 O           5.1350   -4.7578    0.0000 O.3     1  UNL1       -0.3313
     13 O           6.8671   -6.7578    0.0000 O.3     1  UNL1       -0.3829
     14 O           5.1350   -7.7578    0.0000 O.3     1  UNL1       -0.3864
     15 O           3.4030   -6.7578    0.0000 O.3     1  UNL1       -0.3865
     16 O          10.2146    6.5414    0.0000 O.3     1  UNL1       -0.4544
     17 O           2.5369   -5.2578    0.0000 O.3     1  UNL1       -0.3924
     18 O          11.9458    6.5956    0.0000 O.2     1  UNL1       -0.2511
     19 C           7.7681   -0.0575    0.0000 C.3     1  UNL1        0.0468
     20 C           6.9040   -0.5609    0.0000 C.3     1  UNL1        0.0055
     21 C           7.7643    0.9425    0.0000 C.3     1  UNL1        0.0603
     22 C           6.8920   -1.6024    0.0000 C.3     1  UNL1       -0.0123
     23 C           6.8963    1.4391    0.0000 C.3     1  UNL1        0.2007
     24 C           8.6801   -0.5609    0.0000 C.3     1  UNL1        0.1123
     25 C           6.0361   -0.0642    0.0000 C.3     1  UNL1        0.0884
     26 C           7.7920   -2.1267    0.0000 C.3     1  UNL1       -0.0068
     27 C           7.1879    0.1438    0.0000 C.3     1  UNL1        0.0591
     28 C           6.0322    0.9358    0.0000 C.3     1  UNL1        0.1210
     29 C           8.6921   -1.6024    0.0000 C.3     1  UNL1       -0.0079
     30 C           8.6397    1.4897    0.0000 C.3     1  UNL1        0.2059
     31 C           5.9421   -2.1267    0.0000 C.3     1  UNL1        0.0198
     32 C           5.9079   -1.4250    0.0000 C.3     1  UNL1       -0.0583
     33 C           7.8046   -3.2116    0.0000 C.2     1  UNL1       -0.0237
     34 C           6.3930    2.3032    0.0000 C.2     1  UNL1        0.3423
     35 C           9.5476    0.9982    0.0000 C.2     1  UNL1        0.3491
     36 C           5.9295   -3.2116    0.0000 C.2     1  UNL1        0.1979
     37 C           6.8671   -3.7578    0.0000 C.2     1  UNL1        0.1654
     38 C           8.6744   -3.7049    0.0000 C.3     1  UNL1       -0.0397
     39 C           9.4584    3.0161    0.0000 C.2     1  UNL1        0.3328
     40 C           6.3863    4.0352    0.0000 C.3     1  UNL1        0.0818
     41 C           6.0010   -5.2578    0.0000 C.3     1  UNL1        0.2309
     42 C           9.4272    4.0156    0.0000 C.2     1  UNL1        0.0252
     43 C           6.0010   -6.2578    0.0000 C.3     1  UNL1        0.1454
     44 C           5.1350   -6.7578    0.0000 C.3     1  UNL1        0.1152
     45 C          10.2771    4.5424    0.0000 C.2     1  UNL1       -0.0234
     46 C           4.2690   -5.2578    0.0000 C.3     1  UNL1        0.1140
     47 C           4.2690   -6.2578    0.0000 C.3     1  UNL1        0.1120
     48 C          10.2459    5.5419    0.0000 C.3     1  UNL1        0.1292
     49 C           3.4030   -4.7578    0.0000 C.3     1  UNL1        0.0731
     50 C          11.1584    4.0697    0.0000 C.3     1  UNL1       -0.0396
     51 C          11.2454    5.5732    0.0000 C.3     1  UNL1       -0.0211
     52 C           9.2464    5.5107    0.0000 C.3     1  UNL1       -0.0211
     53 C          11.0646    7.0682    0.0000 C.2     1  UNL1        0.3048
     54 C          11.0334    8.0678    0.0000 C.3     1  UNL1        0.0333
     55 H           6.1696   -0.9887    0.0000 H       1  UNL1        0.0339
     56 H           8.6143    0.9457    0.0000 H       1  UNL1        0.0384
     57 H           9.4212   -0.9772    0.0000 H       1  UNL1        0.0740
     58 H           5.4980    0.2437    0.0000 H       1  UNL1        0.0623
     59 H           8.5314   -2.5460    0.0000 H       1  UNL1        0.0353
     60 H           6.5857   -0.0037    0.0000 H       1  UNL1        0.0567
     61 H           7.1589   -0.4755    0.0000 H       1  UNL1        0.0567
     62 H           6.0298    1.5558    0.0000 H       1  UNL1        0.0654
     63 H           8.9079   -2.1837    0.0000 H       1  UNL1        0.0307
     64 H           9.3017   -1.4893    0.0000 H       1  UNL1        0.0307
     65 H           8.0928    1.7818    0.0000 H       1  UNL1        0.0857
     66 H           5.7398   -1.5406    0.0000 H       1  UNL1        0.0352
     67 H           5.3300   -2.2257    0.0000 H       1  UNL1        0.0352
     68 H           6.0179   -0.8148    0.0000 H       1  UNL1        0.0235
     69 H           5.2977   -1.3150    0.0000 H       1  UNL1        0.0235
     70 H           5.7978   -2.0351    0.0000 H       1  UNL1        0.0235
     71 H           4.6339   -0.2596    0.0000 H       1  UNL1        0.2099
     72 H           4.6286    1.1204    0.0000 H       1  UNL1        0.2100
     73 H           8.3686   -4.2442    0.0000 H       1  UNL1        0.0276
     74 H           9.2138   -4.0108    0.0000 H       1  UNL1        0.0276
     75 H           8.9803   -3.1656    0.0000 H       1  UNL1        0.0276
     76 H           6.9220    4.3473    0.0000 H       1  UNL1        0.0661
     77 H           6.0742    4.5710    0.0000 H       1  UNL1        0.0661
     78 H           5.8506    3.7232    0.0000 H       1  UNL1        0.0661
     79 H           6.0010   -4.6377    0.0000 H       1  UNL1        0.1084
     80 H           8.8808    4.3086    0.0000 H       1  UNL1        0.0689
     81 H           6.0010   -6.8778    0.0000 H       1  UNL1        0.0683
     82 H           4.5981   -7.0678    0.0000 H       1  UNL1        0.0648
     83 H           4.2690   -4.6377    0.0000 H       1  UNL1        0.0647
     84 H           3.7320   -5.9478    0.0000 H       1  UNL1        0.0647
     85 H           6.8671   -7.3778    0.0000 H       1  UNL1        0.2102
     86 H           3.8015   -4.2828    0.0000 H       1  UNL1        0.0584
     87 H           3.0044   -4.2828    0.0000 H       1  UNL1        0.0584
     88 H          10.8653    3.5233    0.0000 H       1  UNL1        0.0276
     89 H          11.7047    3.7766    0.0000 H       1  UNL1        0.0276
     90 H          11.4514    4.6161    0.0000 H       1  UNL1        0.0276
     91 H           4.5981   -8.0678    0.0000 H       1  UNL1        0.2100
     92 H           3.4030   -7.3778    0.0000 H       1  UNL1        0.2100
     93 H           9.2270    6.1304    0.0000 H       1  UNL1        0.0271
     94 H           8.6267    5.4913    0.0000 H       1  UNL1        0.0271
     95 H           9.2658    4.8910    0.0000 H       1  UNL1        0.0271
     96 H          11.2648    4.9535    0.0000 H       1  UNL1        0.0271
     97 H          11.8651    5.5925    0.0000 H       1  UNL1        0.0271
     98 H          11.2260    6.1928    0.0000 H       1  UNL1        0.0271
     99 H           2.0000   -4.9478    0.0000 H       1  UNL1        0.2095
    100 H          11.6531    8.0871    0.0000 H       1  UNL1        0.0342
    101 H          11.0140    8.6874    0.0000 H       1  UNL1        0.0342
    102 H          10.4137    8.0484    0.0000 H       1  UNL1        0.0342
@<TRIPOS>BOND
     1     1    23    1
     2     1    27    1
     3     2    24    1
     4     2    35    1
     5    25     3    1
     6     3    71    1
     7    28     4    1
     8     4    72    1
     9    30     5    1
    10     5    39    1
    11     6    34    1
    12     6    40    1
    13     7    34    2
    14     8    35    2
    15     9    37    1
    16    41     9    1
    17    10    36    2
    18    11    39    2
    19    12    41    1
    20    12    46    1
    21    43    13    1
    22    13    85    1
    23    44    14    1
    24    14    91    1
    25    47    15    1
    26    15    92    1
    27    16    48    1
    28    16    53    1
    29    17    49    1
    30    17    99    1
    31    18    53    2
    32    19    20    1
    33    19    21    1
    34    19    24    1
    35    19    27    1
    36    20    22    1
    37    20    25    1
    38    20    55    1
    39    21    23    1
    40    21    30    1
    41    21    56    1
    42    22    26    1
    43    22    31    1
    44    22    32    1
    45    23    28    1
    46    23    34    1
    47    24    29    1
    48    24    57    1
    49    25    28    1
    50    25    58    1
    51    26    29    1
    52    26    33    1
    53    26    59    1
    54    27    60    1
    55    27    61    1
    56    28    62    1
    57    29    63    1
    58    29    64    1
    59    30    35    1
    60    30    65    1
    61    31    36    1
    62    31    66    1
    63    31    67    1
    64    32    68    1
    65    32    69    1
    66    32    70    1
    67    33    37    2
    68    33    38    1
    69    36    37    1
    70    38    73    1
    71    38    74    1
    72    38    75    1
    73    39    42    1
    74    40    76    1
    75    40    77    1
    76    40    78    1
    77    41    43    1
    78    41    79    1
    79    42    45    2
    80    42    80    1
    81    43    44    1
    82    43    81    1
    83    44    47    1
    84    44    82    1
    85    45    48    1
    86    45    50    1
    87    46    47    1
    88    46    49    1
    89    46    83    1
    90    47    84    1
    91    48    51    1
    92    48    52    1
    93    49    86    1
    94    49    87    1
    95    50    88    1
    96    50    89    1
    97    50    90    1
    98    51    96    1
    99    51    97    1
   100    51    98    1
   101    52    93    1
   102    52    94    1
   103    52    95    1
   104    53    54    1
   105    54   100    1
   106    54   101    1
   107    54   102    1
