@<TRIPOS>MOLECULE
IMPHY006715
 22 22 0 0 0
SMALL
GASTEIGER

@<TRIPOS>ATOM
      1 O           3.7320    1.2500    0.0000 O.3     1  UNL1       -0.3872
      2 C           2.8660    0.7500    0.0000 C.3     1  UNL1        0.0799
      3 C           2.0000    1.2500    0.0000 C.3     1  UNL1       -0.0255
      4 C           2.8660   -0.2500    0.0000 C.ar    1  UNL1       -0.0192
      5 C           2.0000    2.2500    0.0000 C.3     1  UNL1       -0.0626
      6 C           2.0000   -0.7500    0.0000 C.ar    1  UNL1       -0.0561
      7 C           3.7320   -0.7500    0.0000 C.ar    1  UNL1       -0.0561
      8 C           2.0000   -1.7500    0.0000 C.ar    1  UNL1       -0.0614
      9 C           3.7320   -1.7500    0.0000 C.ar    1  UNL1       -0.0614
     10 C           2.8660   -2.2500    0.0000 C.ar    1  UNL1       -0.0617
     11 H           2.8660    1.6000    0.0000 H       1  UNL1        0.0643
     12 H           1.3894    1.3577    0.0000 H       1  UNL1        0.0291
     13 H           1.7880    0.6674    0.0000 H       1  UNL1        0.0291
     14 H           2.6200    2.2500    0.0000 H       1  UNL1        0.0231
     15 H           2.0000    2.8700    0.0000 H       1  UNL1        0.0231
     16 H           1.3800    2.2500    0.0000 H       1  UNL1        0.0231
     17 H           1.4631   -0.4400    0.0000 H       1  UNL1        0.0621
     18 H           4.2690   -0.4400    0.0000 H       1  UNL1        0.0621
     19 H           1.4631   -2.0600    0.0000 H       1  UNL1        0.0618
     20 H           4.2690   -2.0600    0.0000 H       1  UNL1        0.0618
     21 H           3.7320    1.8700    0.0000 H       1  UNL1        0.2102
     22 H           2.8660   -2.8700    0.0000 H       1  UNL1        0.0618
@<TRIPOS>BOND
     1     1     2    1
     2     1    21    1
     3     2     3    1
     4     2     4    1
     5     2    11    1
     6     3     5    1
     7     3    12    1
     8     3    13    1
     9     4     6   ar
    10     4     7   ar
    11     5    14    1
    12     5    15    1
    13     5    16    1
    14     6     8   ar
    15     6    17    1
    16     7     9   ar
    17     7    18    1
    18     8    10   ar
    19     8    19    1
    20     9    10   ar
    21     9    20    1
    22    10    22    1
