@<TRIPOS>MOLECULE
IMPHY011349
 52 55 0 0 0
SMALL
GASTEIGER

@<TRIPOS>ATOM
      1 C           3.9468    0.1979    0.0000 C.3     1  UNL1        0.0063
      2 C           3.3366   -0.5869    0.0000 C.3     1  UNL1       -0.0255
      3 C           4.0828   -0.7868    0.0000 C.3     1  UNL1       -0.0180
      4 C           3.0458    0.6318    0.0000 C.3     1  UNL1       -0.0219
      5 C           2.9877   -1.4974    0.0000 C.3     1  UNL1       -0.0307
      6 C           3.9296   -1.7498    0.0000 C.3     1  UNL1       -0.0411
      7 C           2.2323   -0.4469    0.0000 C.3     1  UNL1       -0.0484
      8 C           4.8477    0.6318    0.0000 C.2     1  UNL1       -0.0631
      9 C           2.0924    0.3506    0.0000 C.3     1  UNL1       -0.0465
     10 C           5.0610   -0.9634    0.0000 C.3     1  UNL1       -0.0282
     11 C           2.8233    1.6068    0.0000 C.3     1  UNL1       -0.0468
     12 C           5.5328   -0.0885    0.0000 C.2     1  UNL1       -0.0834
     13 C           4.5501   -1.6709    0.0000 C.3     1  UNL1       -0.0584
     14 C           5.0703    1.6068    0.0000 C.3     1  UNL1       -0.0222
     15 C           2.1448    1.0657    0.0000 C.3     1  UNL1       -0.0587
     16 C           2.5340   -2.3886    0.0000 C.3     1  UNL1       -0.0595
     17 C           2.0000   -1.3413    0.0000 C.3     1  UNL1       -0.0595
     18 C           3.4468    2.3886    0.0000 C.3     1  UNL1       -0.0520
     19 C           4.4468    2.3886    0.0000 C.3     1  UNL1       -0.0467
     20 C           6.0452    1.8293    0.0000 C.3     1  UNL1       -0.0587
     21 H           2.6073   -1.0234    0.0000 H       1  UNL1        0.0315
     22 H           3.7900   -2.3539    0.0000 H       1  UNL1        0.0276
     23 H           4.5382   -1.8684    0.0000 H       1  UNL1        0.0276
     24 H           1.6140   -0.4926    0.0000 H       1  UNL1        0.0269
     25 H           2.2161   -1.0667    0.0000 H       1  UNL1        0.0269
     26 H           1.9395    0.9514    0.0000 H       1  UNL1        0.0271
     27 H           1.4862    0.2205    0.0000 H       1  UNL1        0.0271
     28 H           4.8873   -1.5586    0.0000 H       1  UNL1        0.0313
     29 H           5.6346   -1.1987    0.0000 H       1  UNL1        0.0313
     30 H           2.4367    2.0915    0.0000 H       1  UNL1        0.0271
     31 H           2.2647    1.3378    0.0000 H       1  UNL1        0.0271
     32 H           6.1474   -0.0063    0.0000 H       1  UNL1        0.0572
     33 H           4.0020   -1.9606    0.0000 H       1  UNL1        0.0235
     34 H           4.8399   -2.2190    0.0000 H       1  UNL1        0.0235
     35 H           5.0983   -1.3811    0.0000 H       1  UNL1        0.0235
     36 H           5.2750    2.1920    0.0000 H       1  UNL1        0.0343
     37 H           2.4138    1.6243    0.0000 H       1  UNL1        0.0235
     38 H           1.5862    1.3347    0.0000 H       1  UNL1        0.0235
     39 H           1.8758    0.5071    0.0000 H       1  UNL1        0.0235
     40 H           1.9815   -2.1073    0.0000 H       1  UNL1        0.0235
     41 H           2.2527   -2.9411    0.0000 H       1  UNL1        0.0235
     42 H           3.0865   -2.6699    0.0000 H       1  UNL1        0.0235
     43 H           2.0968   -0.7289    0.0000 H       1  UNL1        0.0235
     44 H           1.3876   -1.2445    0.0000 H       1  UNL1        0.0235
     45 H           1.9032   -1.9537    0.0000 H       1  UNL1        0.0235
     46 H           3.5847    2.9930    0.0000 H       1  UNL1        0.0266
     47 H           2.8882    2.6576    0.0000 H       1  UNL1        0.0266
     48 H           5.0054    2.6576    0.0000 H       1  UNL1        0.0271
     49 H           4.3088    2.9930    0.0000 H       1  UNL1        0.0271
     50 H           6.1832    1.2248    0.0000 H       1  UNL1        0.0235
     51 H           6.6496    1.9672    0.0000 H       1  UNL1        0.0235
     52 H           5.9072    2.4337    0.0000 H       1  UNL1        0.0235
@<TRIPOS>BOND
     1     1     2    1
     2     1     3    1
     3     1     4    1
     4     1     8    1
     5     2     5    1
     6     2     7    1
     7     2    21    1
     8     3     6    1
     9     3    10    1
    10     3    13    1
    11     4     9    1
    12     4    11    1
    13     4    15    1
    14     5     6    1
    15     5    16    1
    16     5    17    1
    17     6    22    1
    18     6    23    1
    19     7     9    1
    20     7    24    1
    21     7    25    1
    22     8    12    2
    23     8    14    1
    24     9    26    1
    25     9    27    1
    26    10    12    1
    27    10    28    1
    28    10    29    1
    29    11    18    1
    30    11    30    1
    31    11    31    1
    32    12    32    1
    33    13    33    1
    34    13    34    1
    35    13    35    1
    36    14    19    1
    37    14    20    1
    38    14    36    1
    39    15    37    1
    40    15    38    1
    41    15    39    1
    42    16    40    1
    43    16    41    1
    44    16    42    1
    45    17    43    1
    46    17    44    1
    47    17    45    1
    48    18    19    1
    49    18    46    1
    50    18    47    1
    51    19    48    1
    52    19    49    1
    53    20    50    1
    54    20    51    1
    55    20    52    1
