@<TRIPOS>MOLECULE
IMPHY004996
 40 43 0 0 0
SMALL
GASTEIGER

@<TRIPOS>ATOM
      1 O           7.2304   -2.5327    0.0000 O.2     1  UNL1       -0.4618
      2 O          10.8026   -0.6933    0.0000 O.3     1  UNL1       -0.4489
      3 O          10.8026   -2.3028    0.0000 O.3     1  UNL1       -0.4523
      4 O           8.9904    0.5019    0.0000 O.3     1  UNL1       -0.5027
      5 O           7.2419    0.5365    0.0000 O.2     1  UNL1       -0.2863
      6 O           4.6038    2.0294    0.0000 O.3     1  UNL1       -0.4913
      7 O           2.8680    1.0361    0.0000 O.3     1  UNL1       -0.4885
      8 O           2.8602   -0.9639    0.0000 O.3     1  UNL1       -0.5032
      9 C           8.1243   -0.9981    0.0000 C.ar    1  UNL1        0.1097
     10 C           8.1243   -1.9981    0.0000 C.ar    1  UNL1        0.1457
     11 C           6.3243   -0.9773    0.0000 C.ar    1  UNL1        0.0646
     12 C           9.8564   -0.9981    0.0000 C.ar    1  UNL1        0.2083
     13 C           8.9904   -0.4981    0.0000 C.ar    1  UNL1        0.1769
     14 C           7.2304   -0.4634    0.0000 C.ar    1  UNL1        0.2038
     15 C           9.8564   -1.9981    0.0000 C.ar    1  UNL1        0.1734
     16 C           5.4602   -0.4739    0.0000 C.ar    1  UNL1       -0.0041
     17 C           8.9904   -2.4981    0.0000 C.ar    1  UNL1        0.0271
     18 C           6.3243   -2.0189    0.0000 C.ar    1  UNL1        0.1038
     19 C          11.3862   -1.4981    0.0000 C.3     1  UNL1        0.2334
     20 C           5.4641    0.5261    0.0000 C.ar    1  UNL1       -0.0081
     21 C           4.5923   -0.9706    0.0000 C.ar    1  UNL1       -0.0084
     22 C           4.6000    1.0294    0.0000 C.ar    1  UNL1        0.1657
     23 C           3.7282   -0.4672    0.0000 C.ar    1  UNL1        0.1628
     24 C           3.7320    0.5327    0.0000 C.ar    1  UNL1        0.2033
     25 C           3.7398    2.5327    0.0000 C.3     1  UNL1        0.0790
     26 C           2.0000    0.5394    0.0000 C.3     1  UNL1        0.0791
     27 H           8.9904   -3.1181    0.0000 H       1  UNL1        0.0692
     28 H           5.7886   -2.3310    0.0000 H       1  UNL1        0.1037
     29 H          11.8471   -1.9128    0.0000 H       1  UNL1        0.1166
     30 H          11.8471   -1.0833    0.0000 H       1  UNL1        0.1166
     31 H           6.0022    0.8340    0.0000 H       1  UNL1        0.0661
     32 H           4.5899   -1.5906    0.0000 H       1  UNL1        0.0661
     33 H           9.5273    0.8119    0.0000 H       1  UNL1        0.2923
     34 H           2.8578   -1.5839    0.0000 H       1  UNL1        0.2923
     35 H           4.0518    3.0685    0.0000 H       1  UNL1        0.0660
     36 H           3.2040    2.8448    0.0000 H       1  UNL1        0.0660
     37 H           3.4277    1.9970    0.0000 H       1  UNL1        0.0660
     38 H           1.6921    1.0776    0.0000 H       1  UNL1        0.0660
     39 H           1.4619    0.2315    0.0000 H       1  UNL1        0.0660
     40 H           2.3079    0.0013    0.0000 H       1  UNL1        0.0660
@<TRIPOS>BOND
     1     1    10   ar
     2     1    18   ar
     3     2    12    1
     4     2    19    1
     5     3    15    1
     6     3    19    1
     7     4    13    1
     8     4    33    1
     9     5    14    2
    10     6    22    1
    11     6    25    1
    12     7    24    1
    13     7    26    1
    14     8    23    1
    15     8    34    1
    16     9    10   ar
    17     9    13   ar
    18     9    14   ar
    19    10    17   ar
    20    11    14   ar
    21    11    16    1
    22    11    18   ar
    23    12    13   ar
    24    12    15   ar
    25    15    17   ar
    26    16    20   ar
    27    16    21   ar
    28    17    27    1
    29    18    28    1
    30    19    29    1
    31    19    30    1
    32    20    22   ar
    33    20    31    1
    34    21    23   ar
    35    21    32    1
    36    22    24   ar
    37    23    24   ar
    38    25    35    1
    39    25    36    1
    40    25    37    1
    41    26    38    1
    42    26    39    1
    43    26    40    1
