@<TRIPOS>MOLECULE
IMPHY002636
 38 40 0 0 0
SMALL
GASTEIGER

@<TRIPOS>ATOM
      1 O           7.3424   -0.3503    0.0000 O.2     1  UNL1       -0.4621
      2 O           3.7702   -0.1203    0.0000 O.2     1  UNL1       -0.4213
      3 O           5.5301   -3.1550    0.0000 O.3     1  UNL1       -0.4937
      4 O           6.3961    3.3450    0.0000 O.3     1  UNL1       -0.3851
      5 O           2.0000   -0.1308    0.0000 O.2     1  UNL1       -0.2452
      6 C           5.5301   -0.1550    0.0000 C.ar    1  UNL1        0.0608
      7 C           6.3961   -0.6550    0.0000 C.ar    1  UNL1        0.1489
      8 C           6.3961   -1.6550    0.0000 C.ar    1  UNL1        0.0631
      9 C           4.6641   -0.6550    0.0000 C.ar    1  UNL1        0.1532
     10 C           6.3961    2.3450    0.0000 C.3     1  UNL1        0.0789
     11 C           4.6641   -1.6550    0.0000 C.ar    1  UNL1        0.0606
     12 C           5.5301   -2.1550    0.0000 C.ar    1  UNL1        0.1415
     13 C           5.5301    0.8450    0.0000 C.2     1  UNL1       -0.0488
     14 C           6.3961    1.3450    0.0000 C.2     1  UNL1       -0.0526
     15 C           7.3424   -1.9597    0.0000 C.ar    1  UNL1       -0.0126
     16 C           7.3962    2.3450    0.0000 C.3     1  UNL1       -0.0327
     17 C           5.3961    2.3450    0.0000 C.3     1  UNL1       -0.0327
     18 C           3.7702   -2.1897    0.0000 C.ar    1  UNL1       -0.0408
     19 C           7.9260   -1.1550    0.0000 C.ar    1  UNL1        0.0933
     20 C           2.8641   -1.6758    0.0000 C.ar    1  UNL1        0.0237
     21 C           2.8641   -0.6342    0.0000 C.ar    1  UNL1        0.3372
     22 C           6.3961   -3.6550    0.0000 C.3     1  UNL1        0.0788
     23 H           4.9932    1.1550    0.0000 H       1  UNL1        0.0624
     24 H           6.9331    1.0350    0.0000 H       1  UNL1        0.0600
     25 H           7.5350   -2.5490    0.0000 H       1  UNL1        0.0656
     26 H           5.3961    2.9650    0.0000 H       1  UNL1        0.0260
     27 H           4.7762    2.3450    0.0000 H       1  UNL1        0.0260
     28 H           7.3962    1.7250    0.0000 H       1  UNL1        0.0260
     29 H           8.0162    2.3450    0.0000 H       1  UNL1        0.0260
     30 H           7.3962    2.9650    0.0000 H       1  UNL1        0.0260
     31 H           5.3961    1.7250    0.0000 H       1  UNL1        0.0260
     32 H           3.7773   -2.8096    0.0000 H       1  UNL1        0.0628
     33 H           8.5460   -1.1550    0.0000 H       1  UNL1        0.1030
     34 H           2.3284   -1.9879    0.0000 H       1  UNL1        0.0689
     35 H           6.9331    3.6550    0.0000 H       1  UNL1        0.2106
     36 H           6.0862   -4.1919    0.0000 H       1  UNL1        0.0660
     37 H           6.9331   -3.9650    0.0000 H       1  UNL1        0.0660
     38 H           6.7062   -3.1181    0.0000 H       1  UNL1        0.0660
@<TRIPOS>BOND
     1     1     7   ar
     2     1    19   ar
     3     2     9   ar
     4     2    21   ar
     5     3    12    1
     6     3    22    1
     7     4    10    1
     8     4    35    1
     9     5    21    2
    10     6     7   ar
    11     6     9   ar
    12     6    13    1
    13     7     8   ar
    14     8    12   ar
    15     8    15   ar
    16     9    11   ar
    17    10    14    1
    18    10    16    1
    19    10    17    1
    20    11    12   ar
    21    11    18   ar
    22    13    14    2
    23    13    23    1
    24    14    24    1
    25    15    19   ar
    26    15    25    1
    27    16    28    1
    28    16    29    1
    29    16    30    1
    30    17    26    1
    31    17    27    1
    32    17    31    1
    33    18    20   ar
    34    18    32    1
    35    19    33    1
    36    20    21   ar
    37    20    34    1
    38    22    36    1
    39    22    37    1
    40    22    38    1
