@<TRIPOS>MOLECULE
IMPHY014292
 38 38 0 0 0
SMALL
GASTEIGER

@<TRIPOS>ATOM
      1 O           3.3660    0.3655    0.0000 O.3     1  UNL1       -0.3837
      2 O           3.8660   -3.5005    0.0000 O.2     1  UNL1       -0.2927
      3 O           3.8660    2.9636    0.0000 O.3     1  UNL1       -0.3921
      4 C           3.0000   -1.0005    0.0000 C.3     1  UNL1        0.0047
      5 C           3.8660   -0.5005    0.0000 C.3     1  UNL1        0.0927
      6 C           4.3660    0.3655    0.0000 C.3     1  UNL1       -0.0173
      7 C           3.0000   -2.0005    0.0000 C.3     1  UNL1        0.0179
      8 C           4.7320   -1.0005    0.0000 C.2     1  UNL1       -0.0377
      9 C           2.0000   -1.0005    0.0000 C.3     1  UNL1       -0.0565
     10 C           2.2340   -0.3577    0.0000 C.3     1  UNL1       -0.0565
     11 C           3.8660    1.2315    0.0000 C.3     1  UNL1       -0.0242
     12 C           3.8660   -2.5005    0.0000 C.2     1  UNL1        0.1567
     13 C           4.7320   -2.0005    0.0000 C.2     1  UNL1       -0.0175
     14 C           5.5981   -0.5005    0.0000 C.3     1  UNL1       -0.0407
     15 C           4.3660    2.0976    0.0000 C.3     1  UNL1        0.0525
     16 C           5.3660    2.0976    0.0000 C.3     1  UNL1       -0.0389
     17 H           4.8410   -0.0330    0.0000 H       1  UNL1        0.0297
     18 H           4.8410    0.7640    0.0000 H       1  UNL1        0.0297
     19 H           2.3894   -1.8929    0.0000 H       1  UNL1        0.0351
     20 H           2.7880   -2.5831    0.0000 H       1  UNL1        0.0351
     21 H           2.0000   -0.3805    0.0000 H       1  UNL1        0.0236
     22 H           1.3800   -1.0005    0.0000 H       1  UNL1        0.0236
     23 H           2.0000   -1.6205    0.0000 H       1  UNL1        0.0236
     24 H           2.6325    0.1172    0.0000 H       1  UNL1        0.0236
     25 H           1.7590    0.0408    0.0000 H       1  UNL1        0.0236
     26 H           1.8354   -0.8327    0.0000 H       1  UNL1        0.0236
     27 H           3.3911    1.6301    0.0000 H       1  UNL1        0.0291
     28 H           3.3911    0.8330    0.0000 H       1  UNL1        0.0291
     29 H           5.2690   -2.3105    0.0000 H       1  UNL1        0.0653
     30 H           2.7835    0.5777    0.0000 H       1  UNL1        0.2106
     31 H           5.9081   -1.0374    0.0000 H       1  UNL1        0.0275
     32 H           6.1350   -0.1905    0.0000 H       1  UNL1        0.0275
     33 H           5.2881    0.0364    0.0000 H       1  UNL1        0.0275
     34 H           3.7460    2.0976    0.0000 H       1  UNL1        0.0590
     35 H           5.3660    1.4776    0.0000 H       1  UNL1        0.0254
     36 H           5.9860    2.0976    0.0000 H       1  UNL1        0.0254
     37 H           5.3660    2.7176    0.0000 H       1  UNL1        0.0254
     38 H           4.1760    3.5005    0.0000 H       1  UNL1        0.2098
@<TRIPOS>BOND
     1     5     1    1
     2     1    30    1
     3     2    12    2
     4    15     3    1
     5     3    38    1
     6     4     5    1
     7     4     7    1
     8     4     9    1
     9     4    10    1
    10     5     6    1
    11     5     8    1
    12     6    11    1
    13     6    17    1
    14     6    18    1
    15     7    12    1
    16     7    19    1
    17     7    20    1
    18     8    13    2
    19     8    14    1
    20     9    21    1
    21     9    22    1
    22     9    23    1
    23    10    24    1
    24    10    25    1
    25    10    26    1
    26    11    15    1
    27    11    27    1
    28    11    28    1
    29    12    13    1
    30    13    29    1
    31    14    31    1
    32    14    32    1
    33    14    33    1
    34    15    16    1
    35    15    34    1
    36    16    35    1
    37    16    36    1
    38    16    37    1
