@<TRIPOS>MOLECULE
IMPHY003535
 35 37 0 0 0
SMALL
GASTEIGER

@<TRIPOS>ATOM
      1 O           6.0682   -0.6154    0.0000 O.3     1  UNL1       -0.4809
      2 O           7.8003    1.3846    0.0000 O.3     1  UNL1       -0.3849
      3 O           6.0682    2.3846    0.0000 O.3     1  UNL1       -0.3842
      4 O           4.3198    2.4192    0.0000 O.3     1  UNL1       -0.5062
      5 O           2.5381   -0.6395    0.0000 O.3     1  UNL1       -0.5065
      6 O          10.3984   -2.1154    0.0000 O.3     1  UNL1       -0.5068
      7 C           6.9343    0.8846    0.0000 C.3     1  UNL1        0.1262
      8 C           6.9343   -0.1154    0.0000 C.3     1  UNL1        0.1536
      9 C           6.0682    1.3846    0.0000 C.3     1  UNL1        0.1166
     10 C           5.2022    0.8846    0.0000 C.ar    1  UNL1        0.0667
     11 C           5.2022   -0.1154    0.0000 C.ar    1  UNL1        0.1342
     12 C           7.8003   -0.6154    0.0000 C.ar    1  UNL1       -0.0045
     13 C           4.3083    1.4193    0.0000 C.ar    1  UNL1        0.1295
     14 C           4.3083   -0.6501    0.0000 C.ar    1  UNL1        0.0222
     15 C           7.8003   -1.6154    0.0000 C.ar    1  UNL1       -0.0515
     16 C           8.6663   -0.1154    0.0000 C.ar    1  UNL1       -0.0515
     17 C           3.4022    0.9054    0.0000 C.ar    1  UNL1        0.0219
     18 C           3.4022   -0.1362    0.0000 C.ar    1  UNL1        0.1238
     19 C           8.6663   -2.1154    0.0000 C.ar    1  UNL1       -0.0198
     20 C           9.5323   -0.6154    0.0000 C.ar    1  UNL1       -0.0198
     21 C           9.5323   -1.6154    0.0000 C.ar    1  UNL1        0.1169
     22 H           6.9343    1.5046    0.0000 H       1  UNL1        0.0663
     23 H           6.9343   -0.7354    0.0000 H       1  UNL1        0.0812
     24 H           5.5313    1.6946    0.0000 H       1  UNL1        0.0673
     25 H           4.3154   -1.2700    0.0000 H       1  UNL1        0.0691
     26 H           7.8003    2.0046    0.0000 H       1  UNL1        0.2101
     27 H           7.2634   -1.9254    0.0000 H       1  UNL1        0.0623
     28 H           8.6663    0.5046    0.0000 H       1  UNL1        0.0623
     29 H           6.6052    2.6946    0.0000 H       1  UNL1        0.2103
     30 H           2.8665    1.2175    0.0000 H       1  UNL1        0.0691
     31 H           8.6663   -2.7354    0.0000 H       1  UNL1        0.0654
     32 H          10.0693   -0.3054    0.0000 H       1  UNL1        0.0654
     33 H           3.7865    2.7354    0.0000 H       1  UNL1        0.2922
     34 H           2.0000   -0.3316    0.0000 H       1  UNL1        0.2921
     35 H          10.3984   -2.7354    0.0000 H       1  UNL1        0.2921
@<TRIPOS>BOND
     1     1     8    1
     2     1    11    1
     3     2     7    1
     4     2    26    1
     5     3     9    1
     6     3    29    1
     7     4    13    1
     8     4    33    1
     9     5    18    1
    10     5    34    1
    11     6    21    1
    12     6    35    1
    13     7     8    1
    14     7     9    1
    15     7    22    1
    16     8    12    1
    17     8    23    1
    18     9    10    1
    19     9    24    1
    20    10    11   ar
    21    10    13   ar
    22    11    14   ar
    23    12    15   ar
    24    12    16   ar
    25    13    17   ar
    26    14    18   ar
    27    14    25    1
    28    15    19   ar
    29    15    27    1
    30    16    20   ar
    31    16    28    1
    32    17    18   ar
    33    17    30    1
    34    19    21   ar
    35    19    31    1
    36    20    21   ar
    37    20    32    1
