@<TRIPOS>MOLECULE
IMPHY009015
 71 78 0 0 0
SMALL
GASTEIGER

@<TRIPOS>ATOM
      1 O           6.5000    0.0000    0.0000 O.3     1  UNL1       -0.3274
      2 O           2.5000   -5.8000    0.0000 O.3     1  UNL1       -0.4495
      3 O           7.5833   -4.0000    0.0000 O.3     1  UNL1       -0.3415
      4 O           4.1364   -8.0000    0.0000 O.3     1  UNL1       -0.4569
      5 O           5.5000   -6.1500    0.0000 O.3     1  UNL1       -0.3751
      6 O          12.5000   -6.3500    0.0000 O.2     1  UNL1       -0.2913
      7 O           3.2500  -12.1500    0.0000 O.3     1  UNL1       -0.3847
      8 O           8.8636   -8.0000    0.0000 O.2     1  UNL1       -0.2474
      9 O          10.2143  -10.1500    0.0000 O.3     1  UNL1       -0.3889
     10 O           1.0833  -12.3500    0.0000 O.2     1  UNL1       -0.2504
     11 O           7.5833  -12.0000    0.0000 O.2     1  UNL1       -0.2920
     12 C           3.2500   -2.3500    0.0000 C.3     1  UNL1        0.1647
     13 C           1.0833   -4.3500    0.0000 C.3     1  UNL1        0.0655
     14 C           0.5000   -6.3500    0.0000 C.3     1  UNL1       -0.0010
     15 C           3.2500   -4.1500    0.0000 C.3     1  UNL1        0.1799
     16 C           9.7500   -2.1500    0.0000 C.3     1  UNL1        0.2345
     17 C           5.4167   -3.8000    0.0000 C.3     1  UNL1        0.1959
     18 C           3.5000   -6.0000    0.0000 C.3     1  UNL1        0.1457
     19 C           9.7500   -4.3500    0.0000 C.3     1  UNL1        0.0269
     20 C           0.5909   -8.3500    0.0000 C.3     1  UNL1       -0.0048
     21 C          11.9167   -4.1500    0.0000 C.2     1  UNL1        0.1988
     22 C           9.5000   -6.1500    0.0000 C.3     1  UNL1       -0.0175
     23 C           1.7727   -8.1500    0.0000 C.3     1  UNL1        0.0860
     24 C           6.5000   -5.8000    0.0000 C.3     1  UNL1       -0.0102
     25 C          10.0455   -8.3500    0.0000 C.3     1  UNL1        0.0647
     26 C           7.6818   -7.8000    0.0000 C.3     1  UNL1       -0.0456
     27 C          10.5000   -5.8000    0.0000 C.3     1  UNL1       -0.0157
     28 C           7.5000   -6.0000    0.0000 C.2     1  UNL1        0.3430
     29 C           4.6429   -9.8000    0.0000 C.3     1  UNL1        0.1077
     30 C           2.9545   -7.8000    0.0000 C.3     1  UNL1       -0.0579
     31 C           8.5000   -6.3500    0.0000 C.3     1  UNL1        0.0648
     32 C           4.5000   -6.3500    0.0000 C.3     1  UNL1       -0.0183
     33 C          12.4091   -7.8000    0.0000 C.3     1  UNL1        0.0855
     34 C           0.9286  -10.3500    0.0000 C.2     1  UNL1        0.3134
     35 C           6.5000  -10.0000    0.0000 C.3     1  UNL1       -0.0495
     36 C           8.3571  -10.3500    0.0000 C.2     1  UNL1        0.1647
     37 C           5.4167  -11.8000    0.0000 C.3     1  UNL1       -0.0020
     38 C           9.7500  -12.3500    0.0000 C.2     1  UNL1       -0.0224
     39 C           9.7500  -14.1500    0.0000 C.2     1  UNL1       -0.0779
     40 H           1.5000   -6.1500    0.0000 H       1  UNL1        0.0416
     41 H           5.3182   -8.3500    0.0000 H       1  UNL1        0.0775
     42 H          11.5000   -6.0000    0.0000 H       1  UNL1        0.0361
     43 H          -1.2726   -8.8393    0.0000 H       1  UNL1        0.0308
     44 H           1.4603  -10.0694    0.0000 H       1  UNL1        0.0308
     45 H          11.2273   -8.1500    0.0000 H       1  UNL1        0.0316
     46 H           2.7857  -10.1500    0.0000 H       1  UNL1        0.0442
     47 H           4.5735   -5.7716    0.0000 H       1  UNL1        0.0299
     48 H           8.1767   -4.8509    0.0000 H       1  UNL1        0.0299
     49 H           6.0932   -8.8902    0.0000 H       1  UNL1        0.0269
     50 H           8.8771   -9.3112    0.0000 H       1  UNL1        0.0269
     51 H           8.5756   -5.8938    0.0000 H       1  UNL1        0.0296
     52 H          12.0684   -4.6809    0.0000 H       1  UNL1        0.0296
     53 H           1.9746   -9.4589    0.0000 H       1  UNL1        0.0236
     54 H           4.6134   -8.7800    0.0000 H       1  UNL1        0.0236
     55 H           3.9345   -6.1411    0.0000 H       1  UNL1        0.0236
     56 H           9.0662   -8.1916    0.0000 H       1  UNL1        0.0569
     57 H          10.3195   -5.7164    0.0000 H       1  UNL1        0.0569
     58 H           2.8248   -7.3018    0.0000 H       1  UNL1        0.0270
     59 H           5.4518   -8.0252    0.0000 H       1  UNL1        0.0270
     60 H           6.1752   -5.3982    0.0000 H       1  UNL1        0.0270
     61 H          12.0714   -9.8000    0.0000 H       1  UNL1        0.0622
     62 H           6.5000   -8.1500    0.0000 H       1  UNL1        0.2110
     63 H           5.6871   -8.2532    0.0000 H       1  UNL1        0.0240
     64 H           4.7532  -10.8129    0.0000 H       1  UNL1        0.0240
     65 H           7.3129  -11.7468    0.0000 H       1  UNL1        0.0240
     66 H           3.4962  -11.9549    0.0000 H       1  UNL1        0.0336
     67 H           5.0184  -13.6851    0.0000 H       1  UNL1        0.0336
     68 H           3.2500  -14.3500    0.0000 H       1  UNL1        0.2103
     69 H          11.5883  -11.7730    0.0000 H       1  UNL1        0.0649
     70 H          10.7355  -15.8056    0.0000 H       1  UNL1        0.0574
     71 H          11.9167  -12.1500    0.0000 H       1  UNL1        0.2099
@<TRIPOS>BOND
     1    12     1    1
     2     1    16    1
     3     2    15    1
     4     2    28    1
     5     3    16    1
     6     3    31    1
     7     4    18    1
     8     4    34    1
     9    17     5    1
    10     5    62    1
    11     6    21    2
    12    29     7    1
    13     7    68    1
    14     8    28    2
    15    33     9    1
    16     9    71    1
    17    10    34    2
    18    11    36    2
    19    12    13    1
    20    12    15    1
    21    12    17    1
    22    13    14    1
    23    13    21    1
    24    13    40    1
    25    14    20    1
    26    14    23    1
    27    14    30    1
    28    15    18    1
    29    15    32    1
    30    16    19    1
    31    16    21    1
    32    17    24    1
    33    17    28    1
    34    18    20    1
    35    18    41    1
    36    19    22    1
    37    19    27    1
    38    19    42    1
    39    20    43    1
    40    20    44    1
    41    22    25    1
    42    22    26    1
    43    22    45    1
    44    23    31    1
    45    23    34    1
    46    23    46    1
    47    24    26    1
    48    24    47    1
    49    24    48    1
    50    25    29    1
    51    25    35    1
    52    25    36    1
    53    26    49    1
    54    26    50    1
    55    27    33    1
    56    27    51    1
    57    27    52    1
    58    29    33    1
    59    29    37    1
    60    30    53    1
    61    30    54    1
    62    30    55    1
    63    31    56    1
    64    31    57    1
    65    32    58    1
    66    32    59    1
    67    32    60    1
    68    33    61    1
    69    35    63    1
    70    35    64    1
    71    35    65    1
    72    36    38    1
    73    37    39    1
    74    37    66    1
    75    37    67    1
    76    38    39    2
    77    38    69    1
    78    39    70    1
