@<TRIPOS>MOLECULE
IMPHY012898
 42 43 0 0 0
SMALL
GASTEIGER

@<TRIPOS>ATOM
      1 O           5.1350   -1.6550    0.0000 O.3     1  UNL1       -0.3313
      2 O           6.8671   -1.6550    0.0000 O.3     1  UNL1       -0.4572
      3 O           5.1350   -4.6550    0.0000 O.3     1  UNL1       -0.3864
      4 O           3.4030   -3.6550    0.0000 O.3     1  UNL1       -0.3865
      5 O           6.8671   -3.6550    0.0000 O.3     1  UNL1       -0.3829
      6 O           2.5369   -2.1550    0.0000 O.3     1  UNL1       -0.3924
      7 O           8.5991   -0.6550    0.0000 O.3     1  UNL1       -0.5033
      8 O           8.5991    4.3450    0.0000 O.3     1  UNL1       -0.4775
      9 O           6.8671    4.3450    0.0000 O.2     1  UNL1       -0.2458
     10 C           5.1350   -3.6550    0.0000 C.3     1  UNL1        0.1152
     11 C           4.2690   -3.1550    0.0000 C.3     1  UNL1        0.1120
     12 C           6.0010   -3.1550    0.0000 C.3     1  UNL1        0.1454
     13 C           4.2690   -2.1550    0.0000 C.3     1  UNL1        0.1140
     14 C           6.0010   -2.1550    0.0000 C.3     1  UNL1        0.2310
     15 C           3.4030   -1.6550    0.0000 C.3     1  UNL1        0.0731
     16 C           6.8671   -0.6550    0.0000 C.ar    1  UNL1        0.1652
     17 C           7.7331   -0.1550    0.0000 C.ar    1  UNL1        0.1591
     18 C           6.0010   -0.1550    0.0000 C.ar    1  UNL1       -0.0156
     19 C           7.7331    0.8450    0.0000 C.ar    1  UNL1       -0.0094
     20 C           6.0010    0.8450    0.0000 C.ar    1  UNL1       -0.0509
     21 C           6.8671    1.3450    0.0000 C.ar    1  UNL1       -0.0211
     22 C           6.8671    2.3450    0.0000 C.2     1  UNL1       -0.0477
     23 C           7.7331    2.8450    0.0000 C.2     1  UNL1        0.0229
     24 C           7.7331    3.8450    0.0000 C.2     1  UNL1        0.3296
     25 H           4.5981   -3.9650    0.0000 H       1  UNL1        0.0648
     26 H           4.2690   -3.7750    0.0000 H       1  UNL1        0.0647
     27 H           6.0010   -3.7750    0.0000 H       1  UNL1        0.0683
     28 H           4.2690   -1.5350    0.0000 H       1  UNL1        0.0647
     29 H           6.0010   -1.5350    0.0000 H       1  UNL1        0.1084
     30 H           3.8015   -1.1800    0.0000 H       1  UNL1        0.0584
     31 H           3.0044   -1.1800    0.0000 H       1  UNL1        0.0584
     32 H           4.5981   -4.9650    0.0000 H       1  UNL1        0.2100
     33 H           3.4030   -4.2750    0.0000 H       1  UNL1        0.2100
     34 H           6.8671   -4.2750    0.0000 H       1  UNL1        0.2102
     35 H           2.0000   -1.8450    0.0000 H       1  UNL1        0.2095
     36 H           5.4641   -0.4650    0.0000 H       1  UNL1        0.0655
     37 H           8.2700    1.1550    0.0000 H       1  UNL1        0.0661
     38 H           5.4641    1.1550    0.0000 H       1  UNL1        0.0625
     39 H           9.1360   -0.3450    0.0000 H       1  UNL1        0.2923
     40 H           6.3301    2.6550    0.0000 H       1  UNL1        0.0626
     41 H           8.2700    2.5350    0.0000 H       1  UNL1        0.0689
     42 H           8.5991    4.9650    0.0000 H       1  UNL1        0.2954
@<TRIPOS>BOND
     1     1    13    1
     2     1    14    1
     3     2    14    1
     4     2    16    1
     5     3    10    1
     6     3    32    1
     7     4    11    1
     8     4    33    1
     9     5    12    1
    10     5    34    1
    11     6    15    1
    12     6    35    1
    13     7    17    1
    14     7    39    1
    15     8    24    1
    16     8    42    1
    17     9    24    2
    18    10    11    1
    19    10    12    1
    20    10    25    1
    21    11    13    1
    22    11    26    1
    23    12    14    1
    24    12    27    1
    25    13    15    1
    26    13    28    1
    27    14    29    1
    28    15    30    1
    29    15    31    1
    30    16    17   ar
    31    16    18   ar
    32    17    19   ar
    33    18    20   ar
    34    18    36    1
    35    19    21   ar
    36    19    37    1
    37    20    21   ar
    38    20    38    1
    39    21    22    1
    40    22    23    2
    41    22    40    1
    42    23    24    1
    43    23    41    1
