@<TRIPOS>MOLECULE
IMPHY016209
 74 75 0 0 0
SMALL
GASTEIGER

@<TRIPOS>ATOM
      1 O           6.3978   -2.0996    0.0000 O.3     1  UNL1       -0.3771
      2 O           5.3052   -0.2500    0.0000 O.3     1  UNL1       -0.3771
      3 O           8.5427    2.0996    0.0000 O.3     1  UNL1       -0.3771
      4 O           9.6353    0.2500    0.0000 O.3     1  UNL1       -0.3771
      5 O           3.7247   -2.5479    0.0000 O.3     1  UNL1       -0.3752
      6 O           3.5731    1.7500    0.0000 O.3     1  UNL1       -0.3752
      7 O          11.2157    2.5479    0.0000 O.3     1  UNL1       -0.3752
      8 O          11.3674   -1.7500    0.0000 O.3     1  UNL1       -0.3752
      9 O           2.0000   -0.4571    0.0000 O.3     1  UNL1       -0.3752
     10 O          12.9405    0.4571    0.0000 O.3     1  UNL1       -0.3752
     11 C           7.0372   -0.2500    0.0000 C.3     1  UNL1        0.0129
     12 C           7.9033    0.2500    0.0000 C.3     1  UNL1        0.0129
     13 C           7.0372   -1.2500    0.0000 C.3     1  UNL1        0.0531
     14 C           6.1712    0.2500    0.0000 C.3     1  UNL1        0.0531
     15 C           7.9033    1.2500    0.0000 C.3     1  UNL1        0.0531
     16 C           8.7693   -0.2500    0.0000 C.3     1  UNL1        0.0531
     17 C           5.3978   -2.0996    0.0000 C.3     1  UNL1        0.0710
     18 C           4.4392    0.2500    0.0000 C.3     1  UNL1        0.0710
     19 C           9.5427    2.0996    0.0000 C.3     1  UNL1        0.0710
     20 C          10.5013   -0.2500    0.0000 C.3     1  UNL1        0.0710
     21 C           4.6907   -2.8067    0.0000 C.3     1  UNL1        0.0711
     22 C           4.4392    1.2500    0.0000 C.3     1  UNL1        0.0711
     23 C          10.2498    2.8067    0.0000 C.3     1  UNL1        0.0711
     24 C          10.5013   -1.2500    0.0000 C.3     1  UNL1        0.0711
     25 C           3.2247   -1.6818    0.0000 C.3     1  UNL1        0.0711
     26 C           2.7071    1.2500    0.0000 C.3     1  UNL1        0.0711
     27 C          11.7157    1.6818    0.0000 C.3     1  UNL1        0.0711
     28 C          12.2334   -1.2500    0.0000 C.3     1  UNL1        0.0711
     29 C           2.2588   -1.4230    0.0000 C.3     1  UNL1        0.0711
     30 C           2.7071    0.2500    0.0000 C.3     1  UNL1        0.0711
     31 C          12.6817    1.4230    0.0000 C.3     1  UNL1        0.0711
     32 C          12.2334   -0.2500    0.0000 C.3     1  UNL1        0.0711
     33 H           7.0372    0.3700    0.0000 H       1  UNL1        0.0349
     34 H           8.4402    0.5600    0.0000 H       1  UNL1        0.0349
     35 H           7.3960   -1.7557    0.0000 H       1  UNL1        0.0563
     36 H           7.6280   -1.0617    0.0000 H       1  UNL1        0.0563
     37 H           6.5697    0.7249    0.0000 H       1  UNL1        0.0563
     38 H           5.7727    0.7249    0.0000 H       1  UNL1        0.0563
     39 H           7.5445    1.7557    0.0000 H       1  UNL1        0.0563
     40 H           7.3125    1.0617    0.0000 H       1  UNL1        0.0563
     41 H           8.3708   -0.7249    0.0000 H       1  UNL1        0.0563
     42 H           9.1678   -0.7249    0.0000 H       1  UNL1        0.0563
     43 H           5.5582   -1.5007    0.0000 H       1  UNL1        0.0583
     44 H           4.8608   -1.7896    0.0000 H       1  UNL1        0.0583
     45 H           3.8286    0.3577    0.0000 H       1  UNL1        0.0583
     46 H           4.2271   -0.3326    0.0000 H       1  UNL1        0.0583
     47 H           9.3823    1.5007    0.0000 H       1  UNL1        0.0583
     48 H          10.0797    1.7896    0.0000 H       1  UNL1        0.0583
     49 H          11.1119   -0.3577    0.0000 H       1  UNL1        0.0583
     50 H          10.7134    0.3326    0.0000 H       1  UNL1        0.0583
     51 H           4.4286   -3.3686    0.0000 H       1  UNL1        0.0583
     52 H           5.1985   -3.1623    0.0000 H       1  UNL1        0.0583
     53 H           5.0497    1.1423    0.0000 H       1  UNL1        0.0583
     54 H           4.6512    1.8326    0.0000 H       1  UNL1        0.0583
     55 H          10.5118    3.3686    0.0000 H       1  UNL1        0.0583
     56 H           9.7419    3.1623    0.0000 H       1  UNL1        0.0583
     57 H           9.8908   -1.1423    0.0000 H       1  UNL1        0.0583
     58 H          10.2893   -1.8326    0.0000 H       1  UNL1        0.0583
     59 H           3.8236   -1.5214    0.0000 H       1  UNL1        0.0583
     60 H           3.2247   -1.0618    0.0000 H       1  UNL1        0.0583
     61 H           2.4950    1.8326    0.0000 H       1  UNL1        0.0583
     62 H           2.0965    1.1423    0.0000 H       1  UNL1        0.0583
     63 H          11.1169    1.5214    0.0000 H       1  UNL1        0.0583
     64 H          11.7157    1.0618    0.0000 H       1  UNL1        0.0583
     65 H          12.4454   -1.8326    0.0000 H       1  UNL1        0.0583
     66 H          12.8440   -1.1423    0.0000 H       1  UNL1        0.0583
     67 H           1.6412   -1.4771    0.0000 H       1  UNL1        0.0583
     68 H           2.2048   -2.0407    0.0000 H       1  UNL1        0.0583
     69 H           3.0171   -0.2869    0.0000 H       1  UNL1        0.0583
     70 H           3.3060    0.4105    0.0000 H       1  UNL1        0.0583
     71 H          13.2993    1.4771    0.0000 H       1  UNL1        0.0583
     72 H          12.7357    2.0407    0.0000 H       1  UNL1        0.0583
     73 H          11.9234    0.2869    0.0000 H       1  UNL1        0.0583
     74 H          11.6345   -0.4105    0.0000 H       1  UNL1        0.0583
@<TRIPOS>BOND
     1     1    13    1
     2     1    17    1
     3     2    14    1
     4     2    18    1
     5     3    15    1
     6     3    19    1
     7     4    16    1
     8     4    20    1
     9     5    21    1
    10     5    25    1
    11     6    22    1
    12     6    26    1
    13     7    23    1
    14     7    27    1
    15     8    24    1
    16     8    28    1
    17     9    29    1
    18     9    30    1
    19    10    31    1
    20    10    32    1
    21    11    12    1
    22    11    13    1
    23    11    14    1
    24    11    33    1
    25    12    15    1
    26    12    16    1
    27    12    34    1
    28    13    35    1
    29    13    36    1
    30    14    37    1
    31    14    38    1
    32    15    39    1
    33    15    40    1
    34    16    41    1
    35    16    42    1
    36    17    21    1
    37    17    43    1
    38    17    44    1
    39    18    22    1
    40    18    45    1
    41    18    46    1
    42    19    23    1
    43    19    47    1
    44    19    48    1
    45    20    24    1
    46    20    49    1
    47    20    50    1
    48    21    51    1
    49    21    52    1
    50    22    53    1
    51    22    54    1
    52    23    55    1
    53    23    56    1
    54    24    57    1
    55    24    58    1
    56    25    29    1
    57    25    59    1
    58    25    60    1
    59    26    30    1
    60    26    61    1
    61    26    62    1
    62    27    31    1
    63    27    63    1
    64    27    64    1
    65    28    32    1
    66    28    65    1
    67    28    66    1
    68    29    67    1
    69    29    68    1
    70    30    69    1
    71    30    70    1
    72    31    71    1
    73    31    72    1
    74    32    73    1
    75    32    74    1
