@<TRIPOS>MOLECULE
IMPHY014569
 53 58 0 0 0
SMALL
GASTEIGER

@<TRIPOS>ATOM
      1 O           6.1432    0.2531    0.0000 O.3     1  UNL1       -0.3748
      2 O           6.3492    2.8892    0.0000 O.3     1  UNL1       -0.3914
      3 O           4.5155   -0.5172    0.0000 O.2     1  UNL1       -0.2721
      4 O           5.1878   -2.5862    0.0000 O.3     1  UNL1       -0.2756
      5 N           2.9827    1.1395    0.0000 N.3     1  UNL1       -0.3011
      6 N           5.7756   -1.7772    0.0000 N.am    1  UNL1       -0.1476
      7 C           5.4096    1.2616    0.0000 C.3     1  UNL1        0.0180
      8 C           5.4096    0.2616    0.0000 C.3     1  UNL1        0.0049
      9 C           6.2756    1.7616    0.0000 C.3     1  UNL1       -0.0228
     10 C           4.7883    1.0436    0.0000 C.3     1  UNL1        0.0201
     11 C           5.2877    1.9086    0.0000 C.3     1  UNL1        0.0019
     12 C           6.2756   -0.2384    0.0000 C.3     1  UNL1        0.1069
     13 C           4.2494    0.1418    0.0000 C.3     1  UNL1        0.0075
     14 C           7.1416    0.2616    0.0000 C.3     1  UNL1        0.0774
     15 C           7.1416    1.2616    0.0000 C.3     1  UNL1       -0.0214
     16 C           5.5832    2.2464    0.0000 C.3     1  UNL1        0.0598
     17 C           5.3968    0.9162    0.0000 C.3     1  UNL1        0.0526
     18 C           7.0846   -0.8262    0.0000 C.ar    1  UNL1       -0.0059
     19 C           5.4666   -0.8262    0.0000 C.2     1  UNL1        0.2562
     20 C           2.0000    0.9544    0.0000 C.3     1  UNL1       -0.0124
     21 C           4.8172    2.8892    0.0000 C.3     1  UNL1       -0.0384
     22 C           6.7756   -1.7772    0.0000 C.ar    1  UNL1        0.0686
     23 C           8.1000   -0.5939    0.0000 C.ar    1  UNL1       -0.0556
     24 C           7.4605   -2.5620    0.0000 C.ar    1  UNL1       -0.0377
     25 C           8.8029   -1.3626    0.0000 C.ar    1  UNL1       -0.0614
     26 C           8.4810   -2.3533    0.0000 C.ar    1  UNL1       -0.0599
     27 C           5.5945   -3.4998    0.0000 C.3     1  UNL1        0.0629
     28 H           4.9847   -0.4746    0.0000 H       1  UNL1        0.0337
     29 H           7.0117    2.1866    0.0000 H       1  UNL1        0.0312
     30 H           3.9406    0.9809    0.0000 H       1  UNL1        0.0469
     31 H           4.4638    2.1176    0.0000 H       1  UNL1        0.0341
     32 H           3.8441   -0.3274    0.0000 H       1  UNL1        0.0433
     33 H           4.6998   -0.2844    0.0000 H       1  UNL1        0.0433
     34 H           7.8777    0.6866    0.0000 H       1  UNL1        0.0610
     35 H           7.7522    1.1540    0.0000 H       1  UNL1        0.0293
     36 H           7.3536    1.8442    0.0000 H       1  UNL1        0.0293
     37 H           5.5832    2.8664    0.0000 H       1  UNL1        0.0596
     38 H           4.7857    1.0205    0.0000 H       1  UNL1        0.0563
     39 H           5.1284    0.3573    0.0000 H       1  UNL1        0.0563
     40 H           1.8852    1.5637    0.0000 H       1  UNL1        0.0391
     41 H           1.3907    0.8396    0.0000 H       1  UNL1        0.0391
     42 H           2.1148    0.3451    0.0000 H       1  UNL1        0.0391
     43 H           5.2157    3.3642    0.0000 H       1  UNL1        0.0255
     44 H           4.3422    3.2877    0.0000 H       1  UNL1        0.0255
     45 H           4.4186    2.4143    0.0000 H       1  UNL1        0.0255
     46 H           6.2416    3.4998    0.0000 H       1  UNL1        0.2098
     47 H           8.2848   -0.0021    0.0000 H       1  UNL1        0.0621
     48 H           7.2622   -3.1494    0.0000 H       1  UNL1        0.0637
     49 H           9.4089   -1.2314    0.0000 H       1  UNL1        0.0618
     50 H           8.8941   -2.8156    0.0000 H       1  UNL1        0.0618
     51 H           5.0281   -3.7520    0.0000 H       1  UNL1        0.0547
     52 H           5.8467   -4.0662    0.0000 H       1  UNL1        0.0547
     53 H           6.1609   -3.2476    0.0000 H       1  UNL1        0.0547
@<TRIPOS>BOND
     1     1    14    1
     2     1    17    1
     3    16     2    1
     4     2    46    1
     5     3    19    2
     6     4     6    1
     7     4    27    1
     8     5    10    1
     9     5    13    1
    10     5    20    1
    11     6    19   am
    12     6    22    1
    13     7     8    1
    14     7     9    1
    15     7    13    1
    16     7    16    1
    17     8    10    1
    18     8    12    1
    19     8    28    1
    20     9    11    1
    21     9    15    1
    22     9    29    1
    23    10    11    1
    24    10    30    1
    25    11    17    1
    26    11    31    1
    27    12    14    1
    28    12    18    1
    29    12    19    1
    30    13    32    1
    31    13    33    1
    32    14    15    1
    33    14    34    1
    34    15    35    1
    35    15    36    1
    36    16    21    1
    37    16    37    1
    38    17    38    1
    39    17    39    1
    40    18    22   ar
    41    18    23   ar
    42    20    40    1
    43    20    41    1
    44    20    42    1
    45    21    43    1
    46    21    44    1
    47    21    45    1
    48    22    24   ar
    49    23    25   ar
    50    23    47    1
    51    24    26   ar
    52    24    48    1
    53    25    26   ar
    54    25    49    1
    55    26    50    1
    56    27    51    1
    57    27    52    1
    58    27    53    1
