@<TRIPOS>MOLECULE
IMPHY017460
 16 15 0 0 0
SMALL
GASTEIGER

@<TRIPOS>ATOM
      1 C           2.8660   -0.1900    0.0000 C.3     1  UNL1       -0.0373
      2 C           2.0000   -0.6900    0.0000 C.3     1  UNL1       -0.0618
      3 C           3.7320   -0.6900    0.0000 C.2     1  UNL1       -0.0843
      4 C           4.5981   -0.1900    0.0000 C.2     1  UNL1       -0.0662
      5 C           4.5981    0.8100    0.0000 C.2     1  UNL1       -0.0692
      6 C           5.4641    1.3100    0.0000 C.2     1  UNL1       -0.0987
      7 H           3.2646    0.2849    0.0000 H       1  UNL1        0.0305
      8 H           2.4675    0.2849    0.0000 H       1  UNL1        0.0305
      9 H           1.6900   -0.1531    0.0000 H       1  UNL1        0.0233
     10 H           1.4631   -1.0000    0.0000 H       1  UNL1        0.0233
     11 H           2.3100   -1.2269    0.0000 H       1  UNL1        0.0233
     12 H           3.7320   -1.3100    0.0000 H       1  UNL1        0.0572
     13 H           5.1350   -0.5000    0.0000 H       1  UNL1        0.0614
     14 H           4.0611    1.1200    0.0000 H       1  UNL1        0.0612
     15 H           6.0010    1.0000    0.0000 H       1  UNL1        0.0535
     16 H           5.4641    1.9300    0.0000 H       1  UNL1        0.0535
@<TRIPOS>BOND
     1     1     2    1
     2     1     3    1
     3     1     7    1
     4     1     8    1
     5     2     9    1
     6     2    10    1
     7     2    11    1
     8     3     4    2
     9     3    12    1
    10     4     5    1
    11     4    13    1
    12     5     6    2
    13     5    14    1
    14     6    15    1
    15     6    16    1
