@<TRIPOS>MOLECULE
IMPHY006372
 43 43 0 0 0
SMALL
GASTEIGER

@<TRIPOS>ATOM
      1 O           2.8660   -4.5950    0.0000 O.3     1  UNL1       -0.5068
      2 C           3.7320    0.9050    0.0000 C.3     1  UNL1        0.0043
      3 C           3.7320    1.9050    0.0000 C.3     1  UNL1       -0.0373
      4 C           4.5981    2.4050    0.0000 C.3     1  UNL1       -0.0335
      5 C           2.7320    0.9050    0.0000 C.3     1  UNL1       -0.0526
      6 C           3.7320   -0.0950    0.0000 C.2     1  UNL1       -0.0738
      7 C           4.7320    0.9050    0.0000 C.2     1  UNL1       -0.0815
      8 C           4.5981    3.4050    0.0000 C.2     1  UNL1       -0.0852
      9 C           2.8660   -0.5950    0.0000 C.2     1  UNL1       -0.0577
     10 C           5.4641    3.9050    0.0000 C.2     1  UNL1       -0.0796
     11 C           5.2320    1.7710    0.0000 C.2     1  UNL1       -0.1018
     12 C           2.8660   -1.5950    0.0000 C.ar    1  UNL1       -0.0251
     13 C           5.4641    4.9050    0.0000 C.3     1  UNL1       -0.0440
     14 C           6.3301    3.4050    0.0000 C.3     1  UNL1       -0.0440
     15 C           2.0000   -2.0950    0.0000 C.ar    1  UNL1       -0.0512
     16 C           3.7320   -2.0950    0.0000 C.ar    1  UNL1       -0.0512
     17 C           2.0000   -3.0950    0.0000 C.ar    1  UNL1       -0.0196
     18 C           3.7320   -3.0950    0.0000 C.ar    1  UNL1       -0.0196
     19 C           2.8660   -3.5950    0.0000 C.ar    1  UNL1        0.1169
     20 H           3.5200    2.4876    0.0000 H       1  UNL1        0.0279
     21 H           3.1215    1.7973    0.0000 H       1  UNL1        0.0279
     22 H           4.8101    1.8224    0.0000 H       1  UNL1        0.0308
     23 H           5.2087    2.5127    0.0000 H       1  UNL1        0.0308
     24 H           2.7320    1.5250    0.0000 H       1  UNL1        0.0241
     25 H           2.1120    0.9050    0.0000 H       1  UNL1        0.0241
     26 H           2.7320    0.2850    0.0000 H       1  UNL1        0.0241
     27 H           4.2690   -0.4050    0.0000 H       1  UNL1        0.0581
     28 H           5.0420    0.3681    0.0000 H       1  UNL1        0.0575
     29 H           4.0611    3.7150    0.0000 H       1  UNL1        0.0571
     30 H           2.3291   -0.2850    0.0000 H       1  UNL1        0.0621
     31 H           5.8520    1.7710    0.0000 H       1  UNL1        0.0532
     32 H           4.9220    2.3080    0.0000 H       1  UNL1        0.0532
     33 H           6.0841    4.9050    0.0000 H       1  UNL1        0.0274
     34 H           6.0201    2.8681    0.0000 H       1  UNL1        0.0274
     35 H           6.8671    3.0950    0.0000 H       1  UNL1        0.0274
     36 H           6.6401    3.9419    0.0000 H       1  UNL1        0.0274
     37 H           5.4641    5.5250    0.0000 H       1  UNL1        0.0274
     38 H           4.8441    4.9050    0.0000 H       1  UNL1        0.0274
     39 H           1.4631   -1.7850    0.0000 H       1  UNL1        0.0625
     40 H           4.2690   -1.7850    0.0000 H       1  UNL1        0.0625
     41 H           1.4631   -3.4050    0.0000 H       1  UNL1        0.0654
     42 H           4.2690   -3.4050    0.0000 H       1  UNL1        0.0654
     43 H           2.3291   -4.9050    0.0000 H       1  UNL1        0.2921
@<TRIPOS>BOND
     1     1    19    1
     2     1    43    1
     3     2     3    1
     4     2     5    1
     5     2     6    1
     6     2     7    1
     7     3     4    1
     8     3    20    1
     9     3    21    1
    10     4     8    1
    11     4    22    1
    12     4    23    1
    13     5    24    1
    14     5    25    1
    15     5    26    1
    16     6     9    2
    17     6    27    1
    18     7    11    2
    19     7    28    1
    20     8    10    2
    21     8    29    1
    22     9    12    1
    23     9    30    1
    24    10    13    1
    25    10    14    1
    26    11    31    1
    27    11    32    1
    28    12    15   ar
    29    12    16   ar
    30    13    33    1
    31    13    37    1
    32    13    38    1
    33    14    34    1
    34    14    35    1
    35    14    36    1
    36    15    17   ar
    37    15    39    1
    38    16    18   ar
    39    16    40    1
    40    17    19   ar
    41    17    41    1
    42    18    19   ar
    43    18    42    1
