@<TRIPOS>MOLECULE
IMPHY010777
 56 62 0 0 0
SMALL
GASTEIGER

@<TRIPOS>ATOM
      1 O           2.4328   -4.4082    0.0000 O.3     1  UNL1       -0.4828
      2 C           1.3100   -5.0736    0.0000 C.3     1  UNL1        0.1336
      3 C           1.3100   -6.3627    0.0000 C.3     1  UNL1        0.0449
      4 C           2.4328   -7.0281    0.0000 C.3     1  UNL1        0.0363
      5 C           3.5764   -6.3627    0.0000 C.ar    1  UNL1        0.0508
      6 C           4.6993   -7.0281    0.0000 C.ar    1  UNL1        0.1973
      7 C           5.8221   -6.3627    0.0000 C.ar    1  UNL1        0.0735
      8 C           5.8221   -5.0736    0.0000 C.ar    1  UNL1        0.0091
      9 C           4.6993   -4.4082    0.0000 C.ar    1  UNL1        0.0369
     10 C           3.5764   -5.0736    0.0000 C.ar    1  UNL1        0.1372
     11 C           0.0000   -5.0736    0.0000 C.3     1  UNL1        0.0436
     12 C           0.6446   -3.9299    0.0000 C.3     1  UNL1        0.0436
     13 O           4.6993   -8.3173    0.0000 O.3     1  UNL1       -0.2867
     14 C           6.9450   -7.0281    0.0000 C.2     1  UNL1        0.1763
     15 O           6.9450   -8.3173    0.0000 O.2     1  UNL1       -0.2912
     16 C           8.0678   -6.3627    0.0000 C.3     1  UNL1        0.0708
     17 C           9.2114   -7.0281    0.0000 C.3     1  UNL1        0.0413
     18 C          10.3343   -6.3627    0.0000 C.3     1  UNL1        0.0543
     19 C          10.3343   -5.0736    0.0000 C.2     1  UNL1       -0.0300
     20 C           9.2114   -4.4082    0.0000 C.2     1  UNL1       -0.0474
     21 C           8.0678   -5.0736    0.0000 C.3     1  UNL1        0.0297
     22 C           9.2114   -8.3173    0.0000 C.ar    1  UNL1        0.0177
     23 C          10.3343   -8.9619    0.0000 C.ar    1  UNL1        0.1949
     24 C          10.3343  -10.2719    0.0000 C.ar    1  UNL1        0.0837
     25 C           9.2114  -10.9165    0.0000 C.ar    1  UNL1        0.1989
     26 C           8.0678  -10.2719    0.0000 C.ar    1  UNL1        0.0419
     27 C           8.0678   -8.9619    0.0000 C.ar    1  UNL1        0.0022
     28 C          12.8918   -7.8183    0.0000 C.ar    1  UNL1        0.0555
     29 C          14.0147   -7.1737    0.0000 C.ar    1  UNL1        0.1507
     30 O          14.0147   -5.8637    0.0000 O.2     1  UNL1       -0.4536
     31 C          15.1375   -5.2191    0.0000 C.ar    1  UNL1        0.1476
     32 C          16.2811   -5.8637    0.0000 C.ar    1  UNL1        0.0559
     33 C          16.2811   -7.1737    0.0000 C.ar    1  UNL1        0.2009
     34 C          15.1375   -7.8183    0.0000 C.ar    1  UNL1        0.1119
     35 C          15.1375   -9.1283    0.0000 C.ar    1  UNL1        0.2049
     36 C          14.0147   -9.7728    0.0000 C.ar    1  UNL1        0.0840
     37 C          12.8918   -9.1283    0.0000 C.ar    1  UNL1        0.1981
     38 C           9.2114   -3.1190    0.0000 C.3     1  UNL1        0.0260
     39 O          11.4571   -8.3173    0.0000 O.3     1  UNL1       -0.2868
     40 O           9.2114  -12.2264    0.0000 O.3     1  UNL1       -0.2865
     41 C          15.1375   -3.9091    0.0000 C.ar    1  UNL1        0.0734
     42 C          14.0147   -3.2645    0.0000 C.ar    1  UNL1        0.2018
     43 C          14.0147   -1.9546    0.0000 C.ar    1  UNL1        0.0841
     44 C          15.1375   -1.3100    0.0000 C.ar    1  UNL1        0.1989
     45 C          16.2811   -1.9546    0.0000 C.ar    1  UNL1        0.0423
     46 C          16.2811   -3.2645    0.0000 C.ar    1  UNL1        0.0095
     47 C          17.4040   -5.2191    0.0000 C.3     1  UNL1        0.0580
     48 C          18.5476   -5.8637    0.0000 C.2     1  UNL1       -0.0297
     49 C          19.6704   -5.2191    0.0000 C.2     1  UNL1       -0.0475
     50 C          20.7933   -5.8637    0.0000 C.3     1  UNL1        0.0260
     51 O          17.4040   -7.8183    0.0000 O.2     1  UNL1       -0.2866
     52 O          16.2811   -9.7728    0.0000 O.3     1  UNL1       -0.2862
     53 O          11.7690   -9.7728    0.0000 O.3     1  UNL1       -0.2867
     54 O          12.8918   -3.9091    0.0000 O.3     1  UNL1       -0.2864
     55 O          15.1375    0.0000    0.0000 O.3     1  UNL1       -0.2865
     56 C          19.6704   -3.9091    0.0000 C.3     1  UNL1        0.0260
@<TRIPOS>BOND
     1     1    10    1
     2     1     2    1
     3     2     3    1
     4     2    11    1
     5     2    12    1
     6     3     4    1
     7     4     5    1
     8     5     6   ar
     9     5    10   ar
    10     6     7   ar
    11     6    13    1
    12     7    14    1
    13     7     8   ar
    14     8     9   ar
    15     9    10   ar
    16    14    15    2
    17    16    14    1
    18    16    17    1
    19    16    21    1
    20    17    18    1
    21    17    22    1
    22    18    28    1
    23    18    19    1
    24    19    20    2
    25    20    21    1
    26    20    38    1
    27    22    23   ar
    28    22    27   ar
    29    23    24   ar
    30    23    39    1
    31    24    25   ar
    32    25    26   ar
    33    25    40    1
    34    26    27   ar
    35    28    29   ar
    36    28    37   ar
    37    29    30   ar
    38    29    34   ar
    39    30    31   ar
    40    31    32   ar
    41    31    41    1
    42    32    33   ar
    43    32    47    1
    44    33    34   ar
    45    33    51    2
    46    34    35   ar
    47    35    36   ar
    48    35    52    1
    49    36    37   ar
    50    37    53    1
    51    41    42   ar
    52    41    46   ar
    53    42    43   ar
    54    42    54    1
    55    43    44   ar
    56    44    45   ar
    57    44    55    1
    58    45    46   ar
    59    47    48    1
    60    48    49    2
    61    49    56    1
    62    49    50    1
