@<TRIPOS>MOLECULE
IMPHY016561
 31 31 0 0 0
SMALL
GASTEIGER

@<TRIPOS>ATOM
      1 O           4.5981    1.0000    0.0000 O.3     1  UNL1       -0.4605
      2 O           3.7320    2.5000    0.0000 O.2     1  UNL1       -0.2508
      3 C           5.4641    3.5000    0.0000 C.3     1  UNL1       -0.0458
      4 C           5.4641    2.5000    0.0000 C.3     1  UNL1        0.0447
      5 C           6.3301    4.0000    0.0000 C.3     1  UNL1       -0.0648
      6 C           4.5981    2.0000    0.0000 C.2     1  UNL1        0.3074
      7 C           3.7320    0.5000    0.0000 C.3     1  UNL1        0.1110
      8 C           2.8660   -2.0000    0.0000 C.ar    1  UNL1       -0.0252
      9 C           3.7320   -0.5000    0.0000 C.2     1  UNL1       -0.0465
     10 C           2.8660   -1.0000    0.0000 C.2     1  UNL1       -0.0554
     11 C           2.0000   -2.5000    0.0000 C.ar    1  UNL1       -0.0546
     12 C           3.7320   -2.5000    0.0000 C.ar    1  UNL1       -0.0546
     13 C           2.0000   -3.5000    0.0000 C.ar    1  UNL1       -0.0612
     14 C           3.7320   -3.5000    0.0000 C.ar    1  UNL1       -0.0612
     15 C           2.8660   -4.0000    0.0000 C.ar    1  UNL1       -0.0617
     16 H           5.2520    4.0826    0.0000 H       1  UNL1        0.0268
     17 H           4.8535    3.3923    0.0000 H       1  UNL1        0.0268
     18 H           5.6762    1.9174    0.0000 H       1  UNL1        0.0377
     19 H           6.0747    2.6077    0.0000 H       1  UNL1        0.0377
     20 H           6.6401    3.4631    0.0000 H       1  UNL1        0.0230
     21 H           6.8671    4.3100    0.0000 H       1  UNL1        0.0230
     22 H           6.0201    4.5369    0.0000 H       1  UNL1        0.0230
     23 H           3.5200    1.0826    0.0000 H       1  UNL1        0.0743
     24 H           3.1215    0.3923    0.0000 H       1  UNL1        0.0743
     25 H           4.2690   -0.8100    0.0000 H       1  UNL1        0.0606
     26 H           2.3291   -0.6900    0.0000 H       1  UNL1        0.0621
     27 H           1.4631   -2.1900    0.0000 H       1  UNL1        0.0623
     28 H           4.2690   -2.1900    0.0000 H       1  UNL1        0.0623
     29 H           1.4631   -3.8100    0.0000 H       1  UNL1        0.0618
     30 H           4.2690   -3.8100    0.0000 H       1  UNL1        0.0618
     31 H           2.8660   -4.6200    0.0000 H       1  UNL1        0.0618
@<TRIPOS>BOND
     1     1     6    1
     2     1     7    1
     3     2     6    2
     4     3     4    1
     5     3     5    1
     6     3    16    1
     7     3    17    1
     8     4     6    1
     9     4    18    1
    10     4    19    1
    11     5    20    1
    12     5    21    1
    13     5    22    1
    14     7     9    1
    15     7    23    1
    16     7    24    1
    17     8    10    1
    18     8    11   ar
    19     8    12   ar
    20     9    10    2
    21     9    25    1
    22    10    26    1
    23    11    13   ar
    24    11    27    1
    25    12    14   ar
    26    12    28    1
    27    13    15   ar
    28    13    29    1
    29    14    15   ar
    30    14    30    1
    31    15    31    1
