@<TRIPOS>MOLECULE
IMPHY012734
 53 55 0 0 0
SMALL
GASTEIGER

@<TRIPOS>ATOM
      1 O           6.3831   -1.1056    0.0000 O.3     1  UNL1       -0.3305
      2 O           7.3985    1.2785    0.0000 O.3     1  UNL1       -0.4544
      3 O           4.4065    2.1102    0.0000 O.3     1  UNL1       -0.4570
      4 O           5.5693   -2.4903    0.0000 O.3     1  UNL1       -0.3422
      5 O           7.6773    3.0386    0.0000 O.2     1  UNL1       -0.2453
      6 O           2.8311    1.3904    0.0000 O.2     1  UNL1       -0.2453
      7 C           5.7805    1.2785    0.0000 C.3     1  UNL1        0.0675
      8 C           6.5895    0.6907    0.0000 C.3     1  UNL1        0.1436
      9 C           6.8116   -0.2448    0.0000 C.3     1  UNL1        0.1210
     10 C           4.8221    1.2006    0.0000 C.3     1  UNL1        0.1175
     11 C           5.5028   -1.4925    0.0000 C.3     1  UNL1        0.2110
     12 C           5.8879    0.1386    0.0000 C.2     1  UNL1       -0.0392
     13 C           6.0895    2.2296    0.0000 C.2     1  UNL1        0.0397
     14 C           4.1358    0.5271    0.0000 C.3     1  UNL1        0.0062
     15 C           5.1640   -0.5515    0.0000 C.2     1  UNL1       -0.0198
     16 C           4.0399   -0.4297    0.0000 C.2     1  UNL1       -0.0677
     17 C           4.5789   -1.2260    0.0000 C.2     1  UNL1       -0.0222
     18 C           7.0895    2.2296    0.0000 C.2     1  UNL1        0.3355
     19 C           4.9450    0.4716    0.0000 C.3     1  UNL1       -0.0411
     20 C           5.5017    3.0386    0.0000 C.2     1  UNL1       -0.0882
     21 C           3.0704   -0.6747    0.0000 C.3     1  UNL1       -0.0435
     22 C           6.4667   -2.9316    0.0000 C.3     1  UNL1        0.0487
     23 C           3.4110    2.2051    0.0000 C.2     1  UNL1        0.3346
     24 C           6.5332   -3.9293    0.0000 C.3     1  UNL1       -0.0414
     25 C           2.9955    3.1147    0.0000 C.2     1  UNL1        0.0265
     26 C           2.0000    3.2096    0.0000 C.3     1  UNL1       -0.0335
     27 C           3.5754    3.9293    0.0000 C.2     1  UNL1       -0.0890
     28 H           5.2534    1.9454    0.0000 H       1  UNL1        0.0424
     29 H           7.2772    0.1911    0.0000 H       1  UNL1        0.0771
     30 H           7.5966   -0.5707    0.0000 H       1  UNL1        0.0682
     31 H           4.2124    1.3135    0.0000 H       1  UNL1        0.0744
     32 H           3.8473    1.0759    0.0000 H       1  UNL1        0.0346
     33 H           3.5272    0.4088    0.0000 H       1  UNL1        0.0346
     34 H           4.5606   -0.4091    0.0000 H       1  UNL1        0.0629
     35 H           4.2145   -1.7276    0.0000 H       1  UNL1        0.0628
     36 H           5.1515    1.0562    0.0000 H       1  UNL1        0.0275
     37 H           4.3604    0.6781    0.0000 H       1  UNL1        0.0275
     38 H           4.7385   -0.1130    0.0000 H       1  UNL1        0.0275
     39 H           5.7539    3.6050    0.0000 H       1  UNL1        0.0540
     40 H           4.8851    2.9738    0.0000 H       1  UNL1        0.0540
     41 H           2.9185   -0.0736    0.0000 H       1  UNL1        0.0274
     42 H           2.4693   -0.8266    0.0000 H       1  UNL1        0.0274
     43 H           3.2223   -1.2758    0.0000 H       1  UNL1        0.0274
     44 H           7.0831   -2.9984    0.0000 H       1  UNL1        0.0558
     45 H           6.6395   -2.3361    0.0000 H       1  UNL1        0.0558
     46 H           5.9146   -3.9706    0.0000 H       1  UNL1        0.0252
     47 H           6.5745   -4.5480    0.0000 H       1  UNL1        0.0252
     48 H           7.1519   -3.8881    0.0000 H       1  UNL1        0.0252
     49 H           2.0588    3.8268    0.0000 H       1  UNL1        0.0280
     50 H           1.3828    3.2684    0.0000 H       1  UNL1        0.0280
     51 H           1.9412    2.5924    0.0000 H       1  UNL1        0.0280
     52 H           4.1926    3.8705    0.0000 H       1  UNL1        0.0540
     53 H           3.3178    4.4933    0.0000 H       1  UNL1        0.0540
@<TRIPOS>BOND
     1     1     9    1
     2     1    11    1
     3     2     8    1
     4     2    18    1
     5    10     3    1
     6     3    23    1
     7    11     4    1
     8     4    22    1
     9     5    18    2
    10     6    23    2
    11     7     8    1
    12     7    10    1
    13     7    13    1
    14     7    28    1
    15     8     9    1
    16     8    29    1
    17     9    12    1
    18     9    30    1
    19    10    14    1
    20    10    31    1
    21    11    15    1
    22    11    17    1
    23    12    15    2
    24    12    19    1
    25    13    18    1
    26    13    20    2
    27    14    16    1
    28    14    32    1
    29    14    33    1
    30    15    34    1
    31    16    17    2
    32    16    21    1
    33    17    35    1
    34    19    36    1
    35    19    37    1
    36    19    38    1
    37    20    39    1
    38    20    40    1
    39    21    41    1
    40    21    42    1
    41    21    43    1
    42    22    24    1
    43    22    44    1
    44    22    45    1
    45    23    25    1
    46    24    46    1
    47    24    47    1
    48    24    48    1
    49    25    26    1
    50    25    27    2
    51    26    49    1
    52    26    50    1
    53    26    51    1
    54    27    52    1
    55    27    53    1
