@<TRIPOS>MOLECULE
IMPHY017185
 41 40 0 0 0
SMALL
GASTEIGER

@<TRIPOS>ATOM
      1 O           8.0622    0.2500    0.0000 O.3     1  UNL1       -0.4644
      2 O           8.9282   -1.2500    0.0000 O.2     1  UNL1       -0.2505
      3 C           3.7320   -0.2500    0.0000 C.3     1  UNL1       -0.0507
      4 C           4.5981    0.2500    0.0000 C.3     1  UNL1       -0.0527
      5 C           2.8660    0.2500    0.0000 C.3     1  UNL1       -0.0467
      6 C           5.4641   -0.2500    0.0000 C.3     1  UNL1       -0.0500
      7 C           6.3301    0.2500    0.0000 C.3     1  UNL1       -0.0185
      8 C           2.0000   -0.2500    0.0000 C.3     1  UNL1       -0.0627
      9 C           2.8660    1.2500    0.0000 C.3     1  UNL1       -0.0627
     10 C           7.1962   -0.2500    0.0000 C.3     1  UNL1        0.0925
     11 C           9.7942    0.2500    0.0000 C.3     1  UNL1        0.0534
     12 C          10.6603   -0.2500    0.0000 C.3     1  UNL1       -0.0432
     13 C           8.9282   -0.2500    0.0000 C.2     1  UNL1        0.3099
     14 C           9.7942    1.2500    0.0000 C.3     1  UNL1       -0.0523
     15 C          11.5263    0.2500    0.0000 C.3     1  UNL1       -0.0645
     16 H           3.3335   -0.7249    0.0000 H       1  UNL1        0.0268
     17 H           4.1306   -0.7249    0.0000 H       1  UNL1        0.0268
     18 H           4.9966    0.7249    0.0000 H       1  UNL1        0.0265
     19 H           4.1996    0.7249    0.0000 H       1  UNL1        0.0265
     20 H           2.8660   -0.3700    0.0000 H       1  UNL1        0.0295
     21 H           5.0656   -0.7249    0.0000 H       1  UNL1        0.0266
     22 H           5.8626   -0.7249    0.0000 H       1  UNL1        0.0266
     23 H           6.7287    0.7249    0.0000 H       1  UNL1        0.0298
     24 H           5.9316    0.7249    0.0000 H       1  UNL1        0.0298
     25 H           6.7976   -0.7249    0.0000 H       1  UNL1        0.0697
     26 H           7.5947   -0.7249    0.0000 H       1  UNL1        0.0697
     27 H           1.6900    0.2869    0.0000 H       1  UNL1        0.0232
     28 H           1.4631   -0.5600    0.0000 H       1  UNL1        0.0232
     29 H           2.3100   -0.7869    0.0000 H       1  UNL1        0.0232
     30 H           3.4860    1.2500    0.0000 H       1  UNL1        0.0232
     31 H           2.8660    1.8700    0.0000 H       1  UNL1        0.0232
     32 H           2.2460    1.2500    0.0000 H       1  UNL1        0.0232
     33 H           9.2573    0.5600    0.0000 H       1  UNL1        0.0410
     34 H          10.2617   -0.7249    0.0000 H       1  UNL1        0.0270
     35 H          11.0588   -0.7249    0.0000 H       1  UNL1        0.0270
     36 H          10.4142    1.2500    0.0000 H       1  UNL1        0.0238
     37 H           9.7942    1.8700    0.0000 H       1  UNL1        0.0238
     38 H           9.1742    1.2500    0.0000 H       1  UNL1        0.0238
     39 H          11.8363   -0.2869    0.0000 H       1  UNL1        0.0230
     40 H          12.0632    0.5600    0.0000 H       1  UNL1        0.0230
     41 H          11.2163    0.7869    0.0000 H       1  UNL1        0.0230
@<TRIPOS>BOND
     1     1    10    1
     2     1    13    1
     3     2    13    2
     4     3     4    1
     5     3     5    1
     6     3    16    1
     7     3    17    1
     8     4     6    1
     9     4    18    1
    10     4    19    1
    11     5     8    1
    12     5     9    1
    13     5    20    1
    14     6     7    1
    15     6    21    1
    16     6    22    1
    17     7    10    1
    18     7    23    1
    19     7    24    1
    20     8    27    1
    21     8    28    1
    22     8    29    1
    23     9    30    1
    24     9    31    1
    25     9    32    1
    26    10    25    1
    27    10    26    1
    28    11    12    1
    29    11    13    1
    30    11    14    1
    31    11    33    1
    32    12    15    1
    33    12    34    1
    34    12    35    1
    35    14    36    1
    36    14    37    1
    37    14    38    1
    38    15    39    1
    39    15    40    1
    40    15    41    1
