@<TRIPOS>MOLECULE
IMPHY009779
 29 30 0 0 0
SMALL
GASTEIGER

@<TRIPOS>ATOM
      1 O           6.3981   -1.3291    0.0000 O.3     1  UNL1       -0.4816
      2 O           2.8718    1.6951    0.0000 O.2     1  UNL1       -0.2924
      3 C           7.2641   -0.8291    0.0000 C.3     1  UNL1        0.1235
      4 C           7.2641    0.1709    0.0000 C.2     1  UNL1       -0.0409
      5 C           5.5320   -0.8291    0.0000 C.ar    1  UNL1        0.1289
      6 C           5.5320    0.1709    0.0000 C.ar    1  UNL1        0.0172
      7 C           8.2641   -0.8291    0.0000 C.3     1  UNL1       -0.0215
      8 C           7.7641   -1.6951    0.0000 C.3     1  UNL1       -0.0215
      9 C           6.3981    0.6709    0.0000 C.2     1  UNL1       -0.0513
     10 C           4.6381    0.7056    0.0000 C.ar    1  UNL1       -0.0406
     11 C           4.6381   -1.3637    0.0000 C.ar    1  UNL1       -0.0186
     12 C           3.7320    0.1918    0.0000 C.ar    1  UNL1        0.0179
     13 C           3.7320   -0.8499    0.0000 C.ar    1  UNL1       -0.0478
     14 C           2.8680    0.6951    0.0000 C.2     1  UNL1        0.1601
     15 C           2.0000    0.1984    0.0000 C.3     1  UNL1       -0.0014
     16 H           7.8010    0.4809    0.0000 H       1  UNL1        0.0611
     17 H           8.2641   -1.4491    0.0000 H       1  UNL1        0.0271
     18 H           8.8841   -0.8291    0.0000 H       1  UNL1        0.0271
     19 H           8.2641   -0.2091    0.0000 H       1  UNL1        0.0271
     20 H           7.2272   -2.0051    0.0000 H       1  UNL1        0.0271
     21 H           8.0741   -2.2320    0.0000 H       1  UNL1        0.0271
     22 H           8.3010   -1.3851    0.0000 H       1  UNL1        0.0271
     23 H           6.3981    1.2909    0.0000 H       1  UNL1        0.0623
     24 H           4.6453    1.3256    0.0000 H       1  UNL1        0.0632
     25 H           4.6453   -1.9837    0.0000 H       1  UNL1        0.0654
     26 H           3.1963   -1.1619    0.0000 H       1  UNL1        0.0626
     27 H           1.6921    0.7366    0.0000 H       1  UNL1        0.0309
     28 H           1.4619   -0.1095    0.0000 H       1  UNL1        0.0309
     29 H           2.3079   -0.3397    0.0000 H       1  UNL1        0.0309
@<TRIPOS>BOND
     1     1     3    1
     2     1     5    1
     3     2    14    2
     4     3     4    1
     5     3     7    1
     6     3     8    1
     7     4     9    2
     8     4    16    1
     9     5     6   ar
    10     5    11   ar
    11     6     9    1
    12     6    10   ar
    13     7    17    1
    14     7    18    1
    15     7    19    1
    16     8    20    1
    17     8    21    1
    18     8    22    1
    19     9    23    1
    20    10    12   ar
    21    10    24    1
    22    11    13   ar
    23    11    25    1
    24    12    13   ar
    25    12    14    1
    26    13    26    1
    27    14    15    1
    28    15    27    1
    29    15    28    1
    30    15    29    1
