@<TRIPOS>MOLECULE
IMPHY009576
 80 83 0 0 0
SMALL
GASTEIGER

@<TRIPOS>ATOM
      1 O          11.6495    3.8479    0.0000 O.3     1  UNL1       -0.3947
      2 C           6.5251   -1.8776    0.0000 C.3     1  UNL1       -0.0323
      3 C           6.5251   -0.8776    0.0000 C.3     1  UNL1       -0.0256
      4 C           5.6591   -2.3776    0.0000 C.3     1  UNL1       -0.0344
      5 C           4.7931   -1.8776    0.0000 C.3     1  UNL1       -0.0323
      6 C           3.8831   -2.3844    0.0000 C.3     1  UNL1       -0.0261
      7 C           7.4714   -0.5728    0.0000 C.3     1  UNL1       -0.0294
      8 C           3.8751   -3.4260    0.0000 C.3     1  UNL1       -0.0354
      9 C           5.6591   -0.3776    0.0000 C.3     1  UNL1       -0.0468
     10 C           4.7931   -0.8776    0.0000 C.3     1  UNL1       -0.0489
     11 C           7.4714   -2.1823    0.0000 C.3     1  UNL1       -0.0492
     12 C           5.6752   -3.4191    0.0000 C.3     1  UNL1       -0.0494
     13 C           8.0550   -1.3776    0.0000 C.3     1  UNL1       -0.0489
     14 C           4.7771   -3.9468    0.0000 C.3     1  UNL1       -0.0494
     15 C           2.9562   -1.8203    0.0000 C.3     1  UNL1       -0.0471
     16 C           6.5251    0.1224    0.0000 C.3     1  UNL1       -0.0590
     17 C           2.9396   -3.9758    0.0000 C.3     1  UNL1       -0.0497
     18 C           7.7820    0.3777    0.0000 C.3     1  UNL1       -0.0224
     19 C           3.8908   -1.3844    0.0000 C.3     1  UNL1       -0.0590
     20 C           2.0084   -2.3483    0.0000 C.3     1  UNL1       -0.0525
     21 C           2.0000   -3.4332    0.0000 C.3     1  UNL1       -0.0528
     22 C           7.1142    1.1220    0.0000 C.3     1  UNL1       -0.0587
     23 C           8.7605    0.5839    0.0000 C.2     1  UNL1       -0.0845
     24 C           9.0712    1.5344    0.0000 C.2     1  UNL1       -0.0843
     25 C          10.0497    1.7406    0.0000 C.3     1  UNL1       -0.0185
     26 C          10.3604    2.6912    0.0000 C.3     1  UNL1       -0.0144
     27 C          10.7175    0.9963    0.0000 C.3     1  UNL1       -0.0493
     28 C          11.3389    2.8974    0.0000 C.3     1  UNL1        0.0473
     29 C           9.6925    3.4354    0.0000 C.3     1  UNL1       -0.0598
     30 C          11.6960    1.2026    0.0000 C.3     1  UNL1       -0.0647
     31 H           6.6151   -2.7228    0.0000 H       1  UNL1        0.0309
     32 H           6.3985   -2.7969    0.0000 H       1  UNL1        0.0306
     33 H           5.5292   -1.4526    0.0000 H       1  UNL1        0.0309
     34 H           8.3111   -0.4410    0.0000 H       1  UNL1        0.0312
     35 H           6.0576    0.0974    0.0000 H       1  UNL1        0.0271
     36 H           5.2606    0.0974    0.0000 H       1  UNL1        0.0271
     37 H           3.8774   -4.0460    0.0000 H       1  UNL1        0.0306
     38 H           4.5810   -0.2950    0.0000 H       1  UNL1        0.0268
     39 H           4.1825   -0.9852    0.0000 H       1  UNL1        0.0268
     40 H           7.2203   -2.7492    0.0000 H       1  UNL1        0.0268
     41 H           8.0087   -2.4915    0.0000 H       1  UNL1        0.0268
     42 H           5.8932   -3.9995    0.0000 H       1  UNL1        0.0268
     43 H           6.2843   -3.3036    0.0000 H       1  UNL1        0.0268
     44 H           8.5158   -1.7923    0.0000 H       1  UNL1        0.0268
     45 H           8.5158   -0.9628    0.0000 H       1  UNL1        0.0268
     46 H           4.3798   -4.4228    0.0000 H       1  UNL1        0.0268
     47 H           5.1781   -4.4197    0.0000 H       1  UNL1        0.0268
     48 H           3.3645   -1.3537    0.0000 H       1  UNL1        0.0271
     49 H           2.5663   -1.3383    0.0000 H       1  UNL1        0.0271
     50 H           7.1451    0.1224    0.0000 H       1  UNL1        0.0235
     51 H           6.5251    0.7424    0.0000 H       1  UNL1        0.0235
     52 H           5.9051    0.1224    0.0000 H       1  UNL1        0.0235
     53 H           2.5423   -4.4517    0.0000 H       1  UNL1        0.0268
     54 H           3.3406   -4.4486    0.0000 H       1  UNL1        0.0268
     55 H           7.9746    0.9670    0.0000 H       1  UNL1        0.0343
     56 H           4.5108   -1.3892    0.0000 H       1  UNL1        0.0235
     57 H           3.8956   -0.7645    0.0000 H       1  UNL1        0.0235
     58 H           3.2708   -1.3797    0.0000 H       1  UNL1        0.0235
     59 H           1.8038   -1.7630    0.0000 H       1  UNL1        0.0265
     60 H           1.3967   -2.4497    0.0000 H       1  UNL1        0.0265
     61 H           1.3900   -3.3224    0.0000 H       1  UNL1        0.0265
     62 H           1.7864   -4.0153    0.0000 H       1  UNL1        0.0265
     63 H           7.5756    1.5360    0.0000 H       1  UNL1        0.0235
     64 H           6.7001    1.5834    0.0000 H       1  UNL1        0.0235
     65 H           6.6527    0.7079    0.0000 H       1  UNL1        0.0235
     66 H           9.1746    0.1224    0.0000 H       1  UNL1        0.0572
     67 H           8.6571    1.9959    0.0000 H       1  UNL1        0.0572
     68 H           9.8571    1.1513    0.0000 H       1  UNL1        0.0346
     69 H          10.5530    3.2805    0.0000 H       1  UNL1        0.0326
     70 H          10.1912    0.6687    0.0000 H       1  UNL1        0.0268
     71 H          10.9488    0.4211    0.0000 H       1  UNL1        0.0268
     72 H          11.3594    2.2777    0.0000 H       1  UNL1        0.0560
     73 H          11.9527    2.8100    0.0000 H       1  UNL1        0.0560
     74 H          10.1540    3.8495    0.0000 H       1  UNL1        0.0233
     75 H           9.2784    3.8969    0.0000 H       1  UNL1        0.0233
     76 H           9.2310    3.0214    0.0000 H       1  UNL1        0.0233
     77 H          11.8239    0.5959    0.0000 H       1  UNL1        0.0230
     78 H          12.3027    1.3304    0.0000 H       1  UNL1        0.0230
     79 H          11.5682    1.8092    0.0000 H       1  UNL1        0.0230
     80 H          12.2562    3.9758    0.0000 H       1  UNL1        0.2094
@<TRIPOS>BOND
     1     1    28    1
     2     1    80    1
     3     2     3    1
     4     2     4    1
     5     2    11    1
     6     2    31    1
     7     3     7    1
     8     3     9    1
     9     3    16    1
    10     4     5    1
    11     4    12    1
    12     4    32    1
    13     5     6    1
    14     5    10    1
    15     5    33    1
    16     6     8    1
    17     6    15    1
    18     6    19    1
    19     7    13    1
    20     7    18    1
    21     7    34    1
    22     8    14    1
    23     8    17    1
    24     8    37    1
    25     9    10    1
    26     9    35    1
    27     9    36    1
    28    10    38    1
    29    10    39    1
    30    11    13    1
    31    11    40    1
    32    11    41    1
    33    12    14    1
    34    12    42    1
    35    12    43    1
    36    13    44    1
    37    13    45    1
    38    14    46    1
    39    14    47    1
    40    15    20    1
    41    15    48    1
    42    15    49    1
    43    16    50    1
    44    16    51    1
    45    16    52    1
    46    17    21    1
    47    17    53    1
    48    17    54    1
    49    18    22    1
    50    18    23    1
    51    18    55    1
    52    19    56    1
    53    19    57    1
    54    19    58    1
    55    20    21    1
    56    20    59    1
    57    20    60    1
    58    21    61    1
    59    21    62    1
    60    22    63    1
    61    22    64    1
    62    22    65    1
    63    23    24    2
    64    23    66    1
    65    24    25    1
    66    24    67    1
    67    25    26    1
    68    25    27    1
    69    25    68    1
    70    26    28    1
    71    26    29    1
    72    26    69    1
    73    27    30    1
    74    27    70    1
    75    27    71    1
    76    28    72    1
    77    28    73    1
    78    29    74    1
    79    29    75    1
    80    29    76    1
    81    30    77    1
    82    30    78    1
    83    30    79    1
