@<TRIPOS>MOLECULE
IMPHY004355
 65 72 0 0 0
SMALL
GASTEIGER

@<TRIPOS>ATOM
      1 O           6.0427   -1.2294    0.0000 O.3     1  UNL1       -0.4425
      2 O           6.9527   -2.7362    0.0000 O.3     1  UNL1       -0.4425
      3 O           4.2515   -5.2331    0.0000 O.3     1  UNL1       -0.5059
      4 O           2.5405   -1.2325    0.0000 O.3     1  UNL1       -0.5060
      5 O           7.7748   -3.2294    0.0000 O.3     1  UNL1       -0.5061
      6 O           3.4961    2.4266    0.0000 O.2     1  UNL1       -0.4547
      7 O           8.7850   -5.8874    0.0000 O.3     1  UNL1       -0.5066
      8 O           9.5068   -0.2294    0.0000 O.3     1  UNL1       -0.5066
      9 O           3.3145    5.9716    0.0000 O.3     1  UNL1       -0.5066
     10 C           6.0427   -2.2294    0.0000 C.3     1  UNL1        0.3122
     11 C           5.1767   -2.7294    0.0000 C.ar    1  UNL1        0.0604
     12 C           4.3107   -2.2294    0.0000 C.ar    1  UNL1        0.0011
     13 C           5.1606   -3.7709    0.0000 C.ar    1  UNL1        0.0388
     14 C           4.3107   -1.2294    0.0000 C.ar    1  UNL1        0.0659
     15 C           6.9088   -1.7294    0.0000 C.ar    1  UNL1        0.0826
     16 C           6.0587   -4.2986    0.0000 C.ar    1  UNL1        0.0282
     17 C           5.1767   -0.7294    0.0000 C.ar    1  UNL1        0.1379
     18 C           6.9608   -3.7778    0.0000 C.ar    1  UNL1        0.1373
     19 C           4.2835   -4.2336    0.0000 C.ar    1  UNL1        0.1281
     20 C           3.4512   -2.7241    0.0000 C.ar    1  UNL1       -0.0469
     21 C           3.4378   -3.7157    0.0000 C.ar    1  UNL1       -0.0078
     22 C           3.4007   -0.7225    0.0000 C.ar    1  UNL1        0.1287
     23 C           5.1928    0.3122    0.0000 C.ar    1  UNL1       -0.0083
     24 C           7.7748   -2.2294    0.0000 C.ar    1  UNL1        0.1312
     25 C           6.0420   -5.3835    0.0000 C.ar    1  UNL1       -0.0470
     26 C           6.9088   -0.7294    0.0000 C.ar    1  UNL1       -0.0439
     27 C           4.2947    0.8399    0.0000 C.ar    1  UNL1        0.0242
     28 C           7.9086   -4.3058    0.0000 C.ar    1  UNL1        0.0223
     29 C           3.3926    0.3191    0.0000 C.ar    1  UNL1       -0.0087
     30 C           2.5621   -4.1986    0.0000 C.3     1  UNL1       -0.0362
     31 C           6.9774   -5.9332    0.0000 C.ar    1  UNL1       -0.0194
     32 C           7.9170   -5.3907    0.0000 C.ar    1  UNL1        0.1204
     33 C           8.6408   -1.7294    0.0000 C.ar    1  UNL1        0.0218
     34 C           7.7748   -0.2294    0.0000 C.ar    1  UNL1       -0.0194
     35 C           4.2986    1.8399    0.0000 C.ar    1  UNL1        0.1365
     36 C           8.6408   -0.7294    0.0000 C.ar    1  UNL1        0.1203
     37 C           5.1056    2.4204    0.0000 C.ar    1  UNL1       -0.0081
     38 C           4.8045    3.3678    0.0000 C.ar    1  UNL1        0.0210
     39 C           3.8045    3.3716    0.0000 C.ar    1  UNL1        0.1391
     40 C           5.3078    4.2319    0.0000 C.ar    1  UNL1       -0.0475
     41 C           3.3078    4.2396    0.0000 C.ar    1  UNL1        0.0227
     42 C           3.8112    5.1037    0.0000 C.ar    1  UNL1        0.1204
     43 C           4.8111    5.0998    0.0000 C.ar    1  UNL1       -0.0194
     44 H           2.9166   -2.4102    0.0000 H       1  UNL1        0.0628
     45 H           5.7332    0.6159    0.0000 H       1  UNL1        0.0661
     46 H           5.5015   -5.6872    0.0000 H       1  UNL1        0.0626
     47 H           6.3718   -0.4194    0.0000 H       1  UNL1        0.0625
     48 H           8.4420   -3.9896    0.0000 H       1  UNL1        0.0691
     49 H           2.8545    0.6270    0.0000 H       1  UNL1        0.0661
     50 H           2.2627   -3.6557    0.0000 H       1  UNL1        0.0279
     51 H           2.0191   -4.4980    0.0000 H       1  UNL1        0.0279
     52 H           2.8614   -4.7415    0.0000 H       1  UNL1        0.0279
     53 H           6.9750   -6.5532    0.0000 H       1  UNL1        0.0654
     54 H           9.1777   -2.0394    0.0000 H       1  UNL1        0.0691
     55 H           7.7748    0.3906    0.0000 H       1  UNL1        0.0654
     56 H           3.7050   -5.5258    0.0000 H       1  UNL1        0.2922
     57 H           2.0000   -0.9287    0.0000 H       1  UNL1        0.2922
     58 H           5.6941    2.2255    0.0000 H       1  UNL1        0.0661
     59 H           8.3117   -3.5394    0.0000 H       1  UNL1        0.2922
     60 H           8.7873   -6.5074    0.0000 H       1  UNL1        0.2921
     61 H           5.9278    4.2295    0.0000 H       1  UNL1        0.0626
     62 H          10.0438   -0.5394    0.0000 H       1  UNL1        0.2921
     63 H           2.6878    4.2420    0.0000 H       1  UNL1        0.0691
     64 H           5.1232    5.6356    0.0000 H       1  UNL1        0.0654
     65 H           3.6266    6.5074    0.0000 H       1  UNL1        0.2921
@<TRIPOS>BOND
     1     1    10    1
     2     1    17    1
     3     2    10    1
     4     2    18    1
     5     3    19    1
     6     3    56    1
     7     4    22    1
     8     4    57    1
     9     5    24    1
    10     5    59    1
    11     6    35   ar
    12     6    39   ar
    13     7    32    1
    14     7    60    1
    15     8    36    1
    16     8    62    1
    17     9    42    1
    18     9    65    1
    19    10    11    1
    20    10    15    1
    21    11    12   ar
    22    11    13   ar
    23    12    14    1
    24    12    20   ar
    25    13    16    1
    26    13    19   ar
    27    14    17   ar
    28    14    22   ar
    29    15    24   ar
    30    15    26   ar
    31    16    18   ar
    32    16    25   ar
    33    17    23   ar
    34    18    28   ar
    35    19    21   ar
    36    20    21   ar
    37    20    44    1
    38    21    30    1
    39    22    29   ar
    40    23    27   ar
    41    23    45    1
    42    24    33   ar
    43    25    31   ar
    44    25    46    1
    45    26    34   ar
    46    26    47    1
    47    27    29   ar
    48    27    35    1
    49    28    32   ar
    50    28    48    1
    51    29    49    1
    52    30    50    1
    53    30    51    1
    54    30    52    1
    55    31    32   ar
    56    31    53    1
    57    33    36   ar
    58    33    54    1
    59    34    36   ar
    60    34    55    1
    61    35    37   ar
    62    37    38   ar
    63    37    58    1
    64    38    39   ar
    65    38    40   ar
    66    39    41   ar
    67    40    43   ar
    68    40    61    1
    69    41    42   ar
    70    41    63    1
    71    42    43   ar
    72    43    64    1
