@<TRIPOS>MOLECULE
IMPHY002681
 36 38 0 0 0
SMALL
GASTEIGER

@<TRIPOS>ATOM
      1 O           6.0682   -0.2495    0.0000 O.3     1  UNL1       -0.4878
      2 O           7.4343    2.1165    0.0000 O.3     1  UNL1       -0.3770
      3 O           6.0682    2.7505    0.0000 O.2     1  UNL1       -0.2887
      4 O           2.5381   -0.2736    0.0000 O.3     1  UNL1       -0.5066
      5 O           7.9343   -2.2136    0.0000 O.3     1  UNL1       -0.5033
      6 O           9.9343   -2.2136    0.0000 O.3     1  UNL1       -0.5033
      7 C           6.9343    1.2505    0.0000 C.3     1  UNL1        0.1657
      8 C           7.9343    1.2505    0.0000 C.3     1  UNL1        0.0120
      9 C           6.9343    0.2505    0.0000 C.3     1  UNL1        0.1258
     10 C           6.0682    1.7505    0.0000 C.2     1  UNL1        0.2016
     11 C           5.2022    1.2505    0.0000 C.ar    1  UNL1        0.0623
     12 C           8.4343    0.3845    0.0000 C.ar    1  UNL1       -0.0404
     13 C           5.2022    0.2505    0.0000 C.ar    1  UNL1        0.1347
     14 C           4.3083    1.7852    0.0000 C.ar    1  UNL1       -0.0442
     15 C           7.9343   -0.4815    0.0000 C.ar    1  UNL1       -0.0132
     16 C           9.4343    0.3845    0.0000 C.ar    1  UNL1       -0.0548
     17 C           4.3083   -0.2841    0.0000 C.ar    1  UNL1        0.0222
     18 C           3.4022    1.2713    0.0000 C.ar    1  UNL1       -0.0193
     19 C           3.4022    0.2297    0.0000 C.ar    1  UNL1        0.1204
     20 C           8.4343   -1.3476    0.0000 C.ar    1  UNL1        0.1585
     21 C           9.9343   -0.4815    0.0000 C.ar    1  UNL1       -0.0163
     22 C           9.4343   -1.3476    0.0000 C.ar    1  UNL1        0.1582
     23 H           8.5169    1.4626    0.0000 H       1  UNL1        0.0347
     24 H           7.8266    1.8611    0.0000 H       1  UNL1        0.0347
     25 H           7.1463   -0.3321    0.0000 H       1  UNL1        0.0730
     26 H           7.5449    0.3582    0.0000 H       1  UNL1        0.0730
     27 H           8.0543    2.1165    0.0000 H       1  UNL1        0.2109
     28 H           4.3154    2.4051    0.0000 H       1  UNL1        0.0627
     29 H           7.3143   -0.4815    0.0000 H       1  UNL1        0.0658
     30 H           9.7443    0.9214    0.0000 H       1  UNL1        0.0621
     31 H           4.3154   -0.9041    0.0000 H       1  UNL1        0.0691
     32 H           2.8665    1.5834    0.0000 H       1  UNL1        0.0654
     33 H          10.5543   -0.4815    0.0000 H       1  UNL1        0.0655
     34 H           2.0000    0.0343    0.0000 H       1  UNL1        0.2921
     35 H           8.2443   -2.7505    0.0000 H       1  UNL1        0.2923
     36 H          10.5543   -2.2136    0.0000 H       1  UNL1        0.2923
@<TRIPOS>BOND
     1     1     9    1
     2     1    13    1
     3     7     2    1
     4     2    27    1
     5     3    10    2
     6     4    19    1
     7     4    34    1
     8     5    20    1
     9     5    35    1
    10     6    22    1
    11     6    36    1
    12     7     8    1
    13     7     9    1
    14     7    10    1
    15     8    12    1
    16     8    23    1
    17     8    24    1
    18     9    25    1
    19     9    26    1
    20    10    11    1
    21    11    13   ar
    22    11    14   ar
    23    12    15   ar
    24    12    16   ar
    25    13    17   ar
    26    14    18   ar
    27    14    28    1
    28    15    20   ar
    29    15    29    1
    30    16    21   ar
    31    16    30    1
    32    17    19   ar
    33    17    31    1
    34    18    19   ar
    35    18    32    1
    36    20    22   ar
    37    21    22   ar
    38    21    33    1
