@<TRIPOS>MOLECULE
IMPHY007752
 69 73 0 0 0
SMALL
GASTEIGER

@<TRIPOS>ATOM
      1 O           2.9999   -2.1332    0.0000 O.3     1  UNL1       -0.4675
      2 O           3.0200   -0.4013    0.0000 O.2     1  UNL1       -0.2502
      3 O          11.7704    1.8272    0.0000 O.3     1  UNL1       -0.3865
      4 O          12.6345    0.2388    0.0000 O.2     1  UNL1       -0.2444
      5 O          10.8151    3.3623    0.0000 O.2     1  UNL1       -0.2451
      6 C           7.2946   -0.8139    0.0000 C.3     1  UNL1       -0.0196
      7 C           6.3846   -1.3208    0.0000 C.3     1  UNL1       -0.0284
      8 C           8.1606   -1.3139    0.0000 C.3     1  UNL1       -0.0043
      9 C           6.3765   -2.3624    0.0000 C.3     1  UNL1       -0.0286
     10 C           8.1766   -2.3554    0.0000 C.3     1  UNL1       -0.0429
     11 C           7.2786   -2.8832    0.0000 C.3     1  UNL1       -0.0465
     12 C           7.2946    0.1861    0.0000 C.3     1  UNL1       -0.0455
     13 C           5.4577   -0.7567    0.0000 C.3     1  UNL1       -0.0336
     14 C           5.4411   -2.9121    0.0000 C.3     1  UNL1       -0.0464
     15 C           9.0266   -0.8139    0.0000 C.2     1  UNL1       -0.0529
     16 C           9.0266    0.1861    0.0000 C.3     1  UNL1        0.0157
     17 C           4.5098   -1.2846    0.0000 C.3     1  UNL1        0.0653
     18 C           8.1606    0.6861    0.0000 C.3     1  UNL1       -0.0393
     19 C           6.4285   -0.3139    0.0000 C.3     1  UNL1       -0.0585
     20 C           4.5015   -2.3696    0.0000 C.3     1  UNL1       -0.0370
     21 C           9.0266   -1.8139    0.0000 C.3     1  UNL1       -0.0553
     22 C           6.3688   -3.3623    0.0000 C.3     1  UNL1       -0.0593
     23 C           9.9206    0.7208    0.0000 C.2     1  UNL1       -0.0167
     24 C           9.9206   -1.3486    0.0000 C.2     1  UNL1       -0.0604
     25 C           9.0266    1.1861    0.0000 C.3     1  UNL1       -0.0517
     26 C           4.0199   -0.4129    0.0000 C.3     1  UNL1       -0.0494
     27 C           3.5099   -1.2730    0.0000 C.2     1  UNL1        0.3128
     28 C          10.8266    0.2069    0.0000 C.2     1  UNL1        0.0637
     29 C          10.8266   -0.8347    0.0000 C.2     1  UNL1       -0.0475
     30 C           9.8955    1.8055    0.0000 C.2     1  UNL1        0.0278
     31 C          11.7704    0.7422    0.0000 C.2     1  UNL1        0.3470
     32 C          10.8266    2.3624    0.0000 C.2     1  UNL1        0.3398
     33 C           2.0000   -2.1217    0.0000 C.3     1  UNL1        0.0817
     34 H           7.1157   -1.7542    0.0000 H       1  UNL1        0.0312
     35 H           8.3947   -2.9358    0.0000 H       1  UNL1        0.0274
     36 H           8.7858   -2.2399    0.0000 H       1  UNL1        0.0274
     37 H           6.8813   -3.3591    0.0000 H       1  UNL1        0.0271
     38 H           7.6796   -3.3561    0.0000 H       1  UNL1        0.0271
     39 H           7.0825    0.7687    0.0000 H       1  UNL1        0.0271
     40 H           6.6840    0.0784    0.0000 H       1  UNL1        0.0271
     41 H           5.8659   -0.2900    0.0000 H       1  UNL1        0.0279
     42 H           5.0678   -0.2746    0.0000 H       1  UNL1        0.0279
     43 H           5.0438   -3.3880    0.0000 H       1  UNL1        0.0271
     44 H           5.8421   -3.3850    0.0000 H       1  UNL1        0.0271
     45 H           8.5591    1.1610    0.0000 H       1  UNL1        0.0277
     46 H           7.7621    1.1610    0.0000 H       1  UNL1        0.0277
     47 H           6.7385    0.2230    0.0000 H       1  UNL1        0.0235
     48 H           5.8916   -0.0039    0.0000 H       1  UNL1        0.0235
     49 H           6.1185   -0.8508    0.0000 H       1  UNL1        0.0235
     50 H           3.8915   -2.2588    0.0000 H       1  UNL1        0.0276
     51 H           4.2879   -2.9516    0.0000 H       1  UNL1        0.0276
     52 H           8.7166   -2.3508    0.0000 H       1  UNL1        0.0238
     53 H           9.5636   -2.1239    0.0000 H       1  UNL1        0.0238
     54 H           9.3366   -1.2770    0.0000 H       1  UNL1        0.0238
     55 H           5.7488   -3.3575    0.0000 H       1  UNL1        0.0235
     56 H           6.3640   -3.9823    0.0000 H       1  UNL1        0.0235
     57 H           6.9888   -3.3671    0.0000 H       1  UNL1        0.0235
     58 H           9.9134   -1.9685    0.0000 H       1  UNL1        0.0618
     59 H           9.6466    1.1861    0.0000 H       1  UNL1        0.0241
     60 H           9.0266    1.8061    0.0000 H       1  UNL1        0.0241
     61 H           8.4066    1.1861    0.0000 H       1  UNL1        0.0241
     62 H           4.5604   -0.1091    0.0000 H       1  UNL1        0.0240
     63 H           3.7161    0.1276    0.0000 H       1  UNL1        0.0240
     64 H           3.4794   -0.7166    0.0000 H       1  UNL1        0.0240
     65 H          11.3624   -1.1468    0.0000 H       1  UNL1        0.0626
     66 H           9.3527    2.1051    0.0000 H       1  UNL1        0.0692
     67 H           2.0072   -1.5017    0.0000 H       1  UNL1        0.0661
     68 H           1.3800   -2.1145    0.0000 H       1  UNL1        0.0661
     69 H           1.9928   -2.7416    0.0000 H       1  UNL1        0.0661
@<TRIPOS>BOND
     1     1    27    1
     2     1    33    1
     3     2    27    2
     4     3    31    1
     5     3    32    1
     6     4    31    2
     7     5    32    2
     8     6     7    1
     9     6     8    1
    10     6    12    1
    11     6    19    1
    12     7     9    1
    13     7    13    1
    14     7    34    1
    15     8    10    1
    16     8    15    1
    17     8    21    1
    18     9    11    1
    19     9    14    1
    20     9    22    1
    21    10    11    1
    22    10    35    1
    23    10    36    1
    24    11    37    1
    25    11    38    1
    26    12    18    1
    27    12    39    1
    28    12    40    1
    29    13    17    1
    30    13    41    1
    31    13    42    1
    32    14    20    1
    33    14    43    1
    34    14    44    1
    35    15    16    1
    36    15    24    2
    37    16    18    1
    38    16    23    1
    39    16    25    1
    40    17    20    1
    41    17    26    1
    42    17    27    1
    43    18    45    1
    44    18    46    1
    45    19    47    1
    46    19    48    1
    47    19    49    1
    48    20    50    1
    49    20    51    1
    50    21    52    1
    51    21    53    1
    52    21    54    1
    53    22    55    1
    54    22    56    1
    55    22    57    1
    56    23    28    1
    57    23    30    2
    58    24    29    1
    59    24    58    1
    60    25    59    1
    61    25    60    1
    62    25    61    1
    63    26    62    1
    64    26    63    1
    65    26    64    1
    66    28    29    2
    67    28    31    1
    68    29    65    1
    69    30    32    1
    70    30    66    1
    71    33    67    1
    72    33    68    1
    73    33    69    1
