@<TRIPOS>MOLECULE
IMPHY014682
 57 62 0 0 0
SMALL
GASTEIGER

@<TRIPOS>ATOM
      1 O           2.0078    1.7412    0.0000 O.3     1  UNL1       -0.3618
      2 O           4.6660    2.1784    0.0000 O.3     1  UNL1       -0.4609
      3 O           6.3981    2.1784    0.0000 O.3     1  UNL1       -0.4646
      4 O           7.2641    0.6784    0.0000 O.2     1  UNL1       -0.2453
      5 O           3.8000    3.6784    0.0000 O.2     1  UNL1       -0.2512
      6 N           2.9061   -0.8563    0.0000 N.4     1  UNL1        0.2408
      7 N           6.2691   -0.9887    0.0000 N.pl3   1  UNL1       -0.3163
      8 C           3.8000   -0.3216    0.0000 C.3     1  UNL1        0.0066
      9 C           3.8000    0.6784    0.0000 C.3     1  UNL1        0.0841
     10 C           4.6660   -0.8216    0.0000 C.3     1  UNL1        0.0839
     11 C           2.9061    1.2130    0.0000 C.3     1  UNL1        0.1049
     12 C           2.0000    0.6992    0.0000 C.3     1  UNL1        0.1255
     13 C           2.0000   -0.3425    0.0000 C.3     1  UNL1       -0.0022
     14 C           4.3009   -1.7460    0.0000 C.3     1  UNL1        0.0076
     15 C           3.3073   -1.7655    0.0000 C.3     1  UNL1       -0.0301
     16 C           4.6660    1.1784    0.0000 C.3     1  UNL1       -0.0027
     17 C           3.8000    1.6784    0.0000 C.3     1  UNL1        0.1138
     18 C           5.5321   -0.3216    0.0000 C.2     1  UNL1        0.0345
     19 C           4.8752   -1.7934    0.0000 C.ar    1  UNL1       -0.0090
     20 C           5.5321    0.6784    0.0000 C.2     1  UNL1        0.0555
     21 C           5.8640   -1.8965    0.0000 C.ar    1  UNL1        0.0354
     22 C           2.9340    2.1784    0.0000 C.3     1  UNL1       -0.0269
     23 C           4.2545   -2.6222    0.0000 C.ar    1  UNL1       -0.0557
     24 C           6.3981    1.1784    0.0000 C.2     1  UNL1        0.3364
     25 C           6.3005   -2.8355    0.0000 C.ar    1  UNL1       -0.0403
     26 C           4.6692   -3.5710    0.0000 C.ar    1  UNL1       -0.0614
     27 C           5.6990   -3.6784    0.0000 C.ar    1  UNL1       -0.0600
     28 C           4.6660    3.1784    0.0000 C.2     1  UNL1        0.3042
     29 C           5.5321    3.6784    0.0000 C.3     1  UNL1        0.0332
     30 C           7.2641    2.6784    0.0000 C.3     1  UNL1        0.0820
     31 H           3.0639    0.1034    0.0000 H       1  UNL1        0.0871
     32 H           2.6023   -1.3968    0.0000 H       1  UNL1        0.2038
     33 H           3.2223    1.7463    0.0000 H       1  UNL1        0.0633
     34 H           1.3800    0.7015    0.0000 H       1  UNL1        0.0676
     35 H           1.3891   -0.2364    0.0000 H       1  UNL1        0.0841
     36 H           1.7909   -0.9261    0.0000 H       1  UNL1        0.0841
     37 H           4.2315   -2.3620    0.0000 H       1  UNL1        0.0331
     38 H           4.9025   -1.8959    0.0000 H       1  UNL1        0.0331
     39 H           2.7121   -1.9390    0.0000 H       1  UNL1        0.0815
     40 H           3.4010   -2.3784    0.0000 H       1  UNL1        0.0815
     41 H           5.0646    1.6533    0.0000 H       1  UNL1        0.0325
     42 H           4.2675    1.6533    0.0000 H       1  UNL1        0.0325
     43 H           3.8000    2.2984    0.0000 H       1  UNL1        0.0739
     44 H           6.8758   -0.8609    0.0000 H       1  UNL1        0.1519
     45 H           3.2440    2.7153    0.0000 H       1  UNL1        0.0265
     46 H           2.3970    2.4884    0.0000 H       1  UNL1        0.0265
     47 H           2.6240    1.6414    0.0000 H       1  UNL1        0.0265
     48 H           3.6386   -2.5508    0.0000 H       1  UNL1        0.0621
     49 H           6.9178   -2.8926    0.0000 H       1  UNL1        0.0636
     50 H           4.3032   -4.0715    0.0000 H       1  UNL1        0.0618
     51 H           5.9539   -4.2436    0.0000 H       1  UNL1        0.0618
     52 H           5.8421    3.1414    0.0000 H       1  UNL1        0.0342
     53 H           6.0690    3.9884    0.0000 H       1  UNL1        0.0342
     54 H           5.2221    4.2153    0.0000 H       1  UNL1        0.0342
     55 H           7.5741    2.1414    0.0000 H       1  UNL1        0.0661
     56 H           7.8010    2.9884    0.0000 H       1  UNL1        0.0661
     57 H           6.9541    3.2153    0.0000 H       1  UNL1        0.0661
@<TRIPOS>UNITY_ATOM_ATTR
6 1
charge 1
@<TRIPOS>BOND
     1    11     1    1
     2    12     1    1
     3    17     2    1
     4     2    28    1
     5     3    24    1
     6     3    30    1
     7     4    24    2
     8     5    28    2
     9     6     8    1
    10     6    13    1
    11     6    15    1
    12     6    32    1
    13     7    18    1
    14     7    21    1
    15     7    44    1
    16     8     9    1
    17     8    10    1
    18     8    31    1
    19     9    11    1
    20     9    16    1
    21     9    17    1
    22    10    14    1
    23    10    18    1
    24    10    19    1
    25    11    12    1
    26    11    33    1
    27    12    13    1
    28    12    34    1
    29    13    35    1
    30    13    36    1
    31    14    15    1
    32    14    37    1
    33    14    38    1
    34    15    39    1
    35    15    40    1
    36    16    20    1
    37    16    41    1
    38    16    42    1
    39    17    22    1
    40    17    43    1
    41    18    20    2
    42    19    21   ar
    43    19    23   ar
    44    20    24    1
    45    21    25   ar
    46    22    45    1
    47    22    46    1
    48    22    47    1
    49    23    26   ar
    50    23    48    1
    51    25    27   ar
    52    25    49    1
    53    26    27   ar
    54    26    50    1
    55    27    51    1
    56    28    29    1
    57    29    52    1
    58    29    53    1
    59    29    54    1
    60    30    55    1
    61    30    56    1
    62    30    57    1
