@<TRIPOS>MOLECULE
IMPHY000686
 22 22 0 0 0
SMALL
GASTEIGER

@<TRIPOS>ATOM
      1 O           2.5369    2.0950    0.0000 O.3     1  UNL1       -0.3939
      2 O           4.2690    2.0950    0.0000 O.3     1  UNL1       -0.4801
      3 O           5.1350    0.5950    0.0000 O.2     1  UNL1       -0.2502
      4 C           3.4030    0.5950    0.0000 C.3     1  UNL1        0.1042
      5 C           3.4030   -0.4050    0.0000 C.ar    1  UNL1       -0.0315
      6 C           2.5369    1.0950    0.0000 C.3     1  UNL1        0.0612
      7 C           2.5369   -0.9050    0.0000 C.ar    1  UNL1       -0.0577
      8 C           4.2690   -0.9050    0.0000 C.ar    1  UNL1       -0.0577
      9 C           4.2690    1.0950    0.0000 C.2     1  UNL1        0.3144
     10 C           2.5369   -1.9050    0.0000 C.ar    1  UNL1       -0.0615
     11 C           4.2690   -1.9050    0.0000 C.ar    1  UNL1       -0.0615
     12 C           3.4030   -2.4050    0.0000 C.ar    1  UNL1       -0.0617
     13 H           3.4030    1.2150    0.0000 H       1  UNL1        0.0485
     14 H           1.9264    1.2027    0.0000 H       1  UNL1        0.0568
     15 H           2.3249    0.5124    0.0000 H       1  UNL1        0.0568
     16 H           2.0000   -0.5950    0.0000 H       1  UNL1        0.0621
     17 H           4.8059   -0.5950    0.0000 H       1  UNL1        0.0621
     18 H           2.0000   -2.2150    0.0000 H       1  UNL1        0.0618
     19 H           4.8059   -2.2150    0.0000 H       1  UNL1        0.0618
     20 H           3.4030   -3.0250    0.0000 H       1  UNL1        0.0618
     21 H           2.0000    2.4050    0.0000 H       1  UNL1        0.2094
     22 H           4.8059    2.4050    0.0000 H       1  UNL1        0.2951
@<TRIPOS>BOND
     1     1     6    1
     2     1    21    1
     3     2     9    1
     4     2    22    1
     5     3     9    2
     6     4     5    1
     7     4     6    1
     8     4     9    1
     9     4    13    1
    10     5     7   ar
    11     5     8   ar
    12     6    14    1
    13     6    15    1
    14     7    10   ar
    15     7    16    1
    16     8    11   ar
    17     8    17    1
    18    10    12   ar
    19    10    18    1
    20    11    12   ar
    21    11    19    1
    22    12    20    1
