@<TRIPOS>MOLECULE
IMPHY010766
 23 24 0 0 0
SMALL
GASTEIGER

@<TRIPOS>ATOM
      1 O           5.4641   -1.0173    0.0000 O.3     1  UNL1       -0.4397
      2 O           6.3580    0.4480    0.0000 O.2     1  UNL1       -0.4211
      3 O           2.8660    0.4827    0.0000 O.3     1  UNL1       -0.4715
      4 O           2.8660   -0.5173    0.0000 O.2     1  UNL1       -0.2919
      5 O           8.1282    0.4585    0.0000 O.2     1  UNL1       -0.2445
      6 O           7.0917   -0.4249    0.0000 O.2     1  UNL1       -0.2501
      7 C           4.5981   -0.5173    0.0000 C.3     1  UNL1        0.2534
      8 C           4.5981    0.4827    0.0000 C.ar    1  UNL1        0.0930
      9 C           3.7321   -2.0173    0.0000 C.3     1  UNL1        0.0617
     10 C           3.7321   -1.0173    0.0000 C.2     1  UNL1        0.1945
     11 C           5.4641    0.9827    0.0000 C.ar    1  UNL1        0.1514
     12 C           3.7321    0.9827    0.0000 C.ar    1  UNL1        0.1414
     13 C           5.4641    1.9827    0.0000 C.ar    1  UNL1        0.0349
     14 C           4.5981   -2.5173    0.0000 C.3     1  UNL1        0.0079
     15 C           2.8660   -2.5173    0.0000 C.3     1  UNL1        0.0079
     16 C           3.7321    1.9827    0.0000 C.ar    1  UNL1        0.0369
     17 C           4.5981    2.4827    0.0000 C.ar    1  UNL1        0.0061
     18 C           6.3580    2.5173    0.0000 C.ar    1  UNL1        0.0097
     19 C           7.2641    2.0035    0.0000 C.ar    1  UNL1        0.0824
     20 C           7.2641    0.9619    0.0000 C.ar    1  UNL1        0.3459
     21 C           6.4489   -1.1910    0.0000 C.2     1  UNL1        0.3182
     22 C           2.0000    0.9827    0.0000 C.3     1  UNL1        0.2525
     23 C           6.7909   -2.1307    0.0000 C.3     1  UNL1        0.1212
@<TRIPOS>BOND
     1     1     7    1
     2     1    21    1
     3     2    11   ar
     4     2    20   ar
     5     3    12    1
     6     3    22    1
     7     4    10    2
     8     5    20    2
     9     6    21    2
    10     7     8    1
    11     7    10    1
    12     8    11   ar
    13     8    12   ar
    14     9    10    1
    15     9    14    1
    16     9    15    1
    17    11    13   ar
    18    12    16   ar
    19    13    17   ar
    20    13    18   ar
    21    16    17   ar
    22    18    19   ar
    23    19    20   ar
    24    21    23    1
