@<TRIPOS>MOLECULE
IMPHY016201
 107 106 0 0 0
SMALL
GASTEIGER

@<TRIPOS>ATOM
      1 C           9.7942   -0.4330    0.0000 C.3     1  UNL1       -0.0292
      2 C          10.6603    0.0670    0.0000 C.3     1  UNL1       -0.0474
      3 C           8.9282   -0.9330    0.0000 C.3     1  UNL1       -0.0474
      4 C           9.2942    0.4330    0.0000 C.3     1  UNL1       -0.0474
      5 C          10.2942   -1.2990    0.0000 C.3     1  UNL1       -0.0474
      6 C          11.5263   -0.4330    0.0000 C.3     1  UNL1       -0.0526
      7 C           8.0622   -0.4330    0.0000 C.3     1  UNL1       -0.0526
      8 C           9.7942    1.2990    0.0000 C.3     1  UNL1       -0.0526
      9 C           9.7942   -2.1651    0.0000 C.3     1  UNL1       -0.0526
     10 C          12.3923    0.0670    0.0000 C.3     1  UNL1       -0.0530
     11 C           7.1962   -0.9330    0.0000 C.3     1  UNL1       -0.0530
     12 C           9.2942    2.1651    0.0000 C.3     1  UNL1       -0.0530
     13 C          10.2942   -3.0311    0.0000 C.3     1  UNL1       -0.0530
     14 C          13.2583   -0.4330    0.0000 C.3     1  UNL1       -0.0531
     15 C           6.3301   -0.4330    0.0000 C.3     1  UNL1       -0.0531
     16 C           9.7942    3.0311    0.0000 C.3     1  UNL1       -0.0531
     17 C           9.7942   -3.8971    0.0000 C.3     1  UNL1       -0.0531
     18 C          14.1244    0.0670    0.0000 C.3     1  UNL1       -0.0531
     19 C           5.4641   -0.9330    0.0000 C.3     1  UNL1       -0.0531
     20 C           9.2942    3.8971    0.0000 C.3     1  UNL1       -0.0531
     21 C          10.2942   -4.7631    0.0000 C.3     1  UNL1       -0.0533
     22 C          14.9904   -0.4330    0.0000 C.3     1  UNL1       -0.0531
     23 C           4.5981   -0.4330    0.0000 C.3     1  UNL1       -0.0531
     24 C           9.7942    4.7631    0.0000 C.3     1  UNL1       -0.0533
     25 C           9.7942   -5.6292    0.0000 C.3     1  UNL1       -0.0559
     26 C          15.8564    0.0670    0.0000 C.3     1  UNL1       -0.0531
     27 C           3.7320   -0.9330    0.0000 C.3     1  UNL1       -0.0533
     28 C           9.2942    5.6292    0.0000 C.3     1  UNL1       -0.0559
     29 C          16.7224   -0.4330    0.0000 C.3     1  UNL1       -0.0533
     30 C          10.2942   -6.4952    0.0000 C.3     1  UNL1       -0.0653
     31 C           2.8660   -0.4330    0.0000 C.3     1  UNL1       -0.0559
     32 C           9.7942    6.4952    0.0000 C.3     1  UNL1       -0.0653
     33 C          17.5885    0.0670    0.0000 C.3     1  UNL1       -0.0559
     34 C           2.0000   -0.9330    0.0000 C.3     1  UNL1       -0.0653
     35 C          18.4545   -0.4330    0.0000 C.3     1  UNL1       -0.0653
     36 H          11.0588    0.5419    0.0000 H       1  UNL1        0.0271
     37 H          10.2617    0.5419    0.0000 H       1  UNL1        0.0271
     38 H           8.5297   -1.4080    0.0000 H       1  UNL1        0.0271
     39 H           9.3267   -1.4080    0.0000 H       1  UNL1        0.0271
     40 H           8.8193    0.8315    0.0000 H       1  UNL1        0.0271
     41 H           8.8193    0.0345    0.0000 H       1  UNL1        0.0271
     42 H          10.7692   -1.6976    0.0000 H       1  UNL1        0.0271
     43 H          10.7692   -0.9005    0.0000 H       1  UNL1        0.0271
     44 H          11.1278   -0.9080    0.0000 H       1  UNL1        0.0265
     45 H          11.9248   -0.9080    0.0000 H       1  UNL1        0.0265
     46 H           8.4607    0.0419    0.0000 H       1  UNL1        0.0265
     47 H           7.6636    0.0419    0.0000 H       1  UNL1        0.0265
     48 H          10.2692    0.9005    0.0000 H       1  UNL1        0.0265
     49 H          10.2692    1.6976    0.0000 H       1  UNL1        0.0265
     50 H           9.3193   -1.7665    0.0000 H       1  UNL1        0.0265
     51 H           9.3193   -2.5636    0.0000 H       1  UNL1        0.0265
     52 H          12.7908    0.5419    0.0000 H       1  UNL1        0.0265
     53 H          11.9938    0.5419    0.0000 H       1  UNL1        0.0265
     54 H           6.7976   -1.4080    0.0000 H       1  UNL1        0.0265
     55 H           7.5947   -1.4080    0.0000 H       1  UNL1        0.0265
     56 H           8.8193    2.5636    0.0000 H       1  UNL1        0.0265
     57 H           8.8193    1.7665    0.0000 H       1  UNL1        0.0265
     58 H          10.7692   -3.4296    0.0000 H       1  UNL1        0.0265
     59 H          10.7692   -2.6326    0.0000 H       1  UNL1        0.0265
     60 H          12.8598   -0.9080    0.0000 H       1  UNL1        0.0265
     61 H          13.6569   -0.9080    0.0000 H       1  UNL1        0.0265
     62 H           6.7287    0.0419    0.0000 H       1  UNL1        0.0265
     63 H           5.9316    0.0419    0.0000 H       1  UNL1        0.0265
     64 H          10.2692    2.6326    0.0000 H       1  UNL1        0.0265
     65 H          10.2692    3.4296    0.0000 H       1  UNL1        0.0265
     66 H           9.3193   -3.4986    0.0000 H       1  UNL1        0.0265
     67 H           9.3193   -4.2956    0.0000 H       1  UNL1        0.0265
     68 H          14.5229    0.5419    0.0000 H       1  UNL1        0.0265
     69 H          13.7258    0.5419    0.0000 H       1  UNL1        0.0265
     70 H           5.0656   -1.4080    0.0000 H       1  UNL1        0.0265
     71 H           5.8626   -1.4080    0.0000 H       1  UNL1        0.0265
     72 H           8.8193    4.2956    0.0000 H       1  UNL1        0.0265
     73 H           8.8193    3.4986    0.0000 H       1  UNL1        0.0265
     74 H          10.7692   -5.1617    0.0000 H       1  UNL1        0.0265
     75 H          10.7692   -4.3646    0.0000 H       1  UNL1        0.0265
     76 H          14.5919   -0.9080    0.0000 H       1  UNL1        0.0265
     77 H          15.3889   -0.9080    0.0000 H       1  UNL1        0.0265
     78 H           4.9966    0.0419    0.0000 H       1  UNL1        0.0265
     79 H           4.1996    0.0419    0.0000 H       1  UNL1        0.0265
     80 H          10.2692    4.3646    0.0000 H       1  UNL1        0.0265
     81 H          10.2692    5.1617    0.0000 H       1  UNL1        0.0265
     82 H           9.3193   -5.2306    0.0000 H       1  UNL1        0.0263
     83 H           9.3193   -6.0277    0.0000 H       1  UNL1        0.0263
     84 H          16.2549    0.5419    0.0000 H       1  UNL1        0.0265
     85 H          15.4579    0.5419    0.0000 H       1  UNL1        0.0265
     86 H           3.3335   -1.4080    0.0000 H       1  UNL1        0.0265
     87 H           4.1306   -1.4080    0.0000 H       1  UNL1        0.0265
     88 H           8.8193    6.0277    0.0000 H       1  UNL1        0.0263
     89 H           8.8193    5.2306    0.0000 H       1  UNL1        0.0263
     90 H          16.3239   -0.9080    0.0000 H       1  UNL1        0.0265
     91 H          17.1210   -0.9080    0.0000 H       1  UNL1        0.0265
     92 H           9.7573   -6.8052    0.0000 H       1  UNL1        0.0230
     93 H          10.6042   -7.0321    0.0000 H       1  UNL1        0.0230
     94 H          10.8312   -6.1852    0.0000 H       1  UNL1        0.0230
     95 H           3.2646    0.0419    0.0000 H       1  UNL1        0.0263
     96 H           2.4675    0.0419    0.0000 H       1  UNL1        0.0263
     97 H          10.3312    6.1852    0.0000 H       1  UNL1        0.0230
     98 H          10.1042    7.0321    0.0000 H       1  UNL1        0.0230
     99 H           9.2573    6.8052    0.0000 H       1  UNL1        0.0230
    100 H          17.9870    0.5419    0.0000 H       1  UNL1        0.0263
    101 H          17.1899    0.5419    0.0000 H       1  UNL1        0.0263
    102 H           1.6900   -0.3961    0.0000 H       1  UNL1        0.0230
    103 H           1.4631   -1.2430    0.0000 H       1  UNL1        0.0230
    104 H           2.3100   -1.4700    0.0000 H       1  UNL1        0.0230
    105 H          18.1445   -0.9699    0.0000 H       1  UNL1        0.0230
    106 H          18.9914   -0.7430    0.0000 H       1  UNL1        0.0230
    107 H          18.7645    0.1039    0.0000 H       1  UNL1        0.0230
@<TRIPOS>BOND
     1     1     2    1
     2     1     3    1
     3     1     4    1
     4     1     5    1
     5     2     6    1
     6     2    36    1
     7     2    37    1
     8     3     7    1
     9     3    38    1
    10     3    39    1
    11     4     8    1
    12     4    40    1
    13     4    41    1
    14     5     9    1
    15     5    42    1
    16     5    43    1
    17     6    10    1
    18     6    44    1
    19     6    45    1
    20     7    11    1
    21     7    46    1
    22     7    47    1
    23     8    12    1
    24     8    48    1
    25     8    49    1
    26     9    13    1
    27     9    50    1
    28     9    51    1
    29    10    14    1
    30    10    52    1
    31    10    53    1
    32    11    15    1
    33    11    54    1
    34    11    55    1
    35    12    16    1
    36    12    56    1
    37    12    57    1
    38    13    17    1
    39    13    58    1
    40    13    59    1
    41    14    18    1
    42    14    60    1
    43    14    61    1
    44    15    19    1
    45    15    62    1
    46    15    63    1
    47    16    20    1
    48    16    64    1
    49    16    65    1
    50    17    21    1
    51    17    66    1
    52    17    67    1
    53    18    22    1
    54    18    68    1
    55    18    69    1
    56    19    23    1
    57    19    70    1
    58    19    71    1
    59    20    24    1
    60    20    72    1
    61    20    73    1
    62    21    25    1
    63    21    74    1
    64    21    75    1
    65    22    26    1
    66    22    76    1
    67    22    77    1
    68    23    27    1
    69    23    78    1
    70    23    79    1
    71    24    28    1
    72    24    80    1
    73    24    81    1
    74    25    30    1
    75    25    82    1
    76    25    83    1
    77    26    29    1
    78    26    84    1
    79    26    85    1
    80    27    31    1
    81    27    86    1
    82    27    87    1
    83    28    32    1
    84    28    88    1
    85    28    89    1
    86    29    33    1
    87    29    90    1
    88    29    91    1
    89    30    92    1
    90    30    93    1
    91    30    94    1
    92    31    34    1
    93    31    95    1
    94    31    96    1
    95    32    97    1
    96    32    98    1
    97    32    99    1
    98    33    35    1
    99    33   100    1
   100    33   101    1
   101    34   102    1
   102    34   103    1
   103    34   104    1
   104    35   105    1
   105    35   106    1
   106    35   107    1
