@<TRIPOS>MOLECULE
IMPHY008474
 48 50 0 0 0
SMALL
GASTEIGER

@<TRIPOS>ATOM
      1 O           6.0290   -0.2847    0.0000 O.3     1  UNL1       -0.4826
      2 O           4.2690    2.7500    0.0000 O.3     1  UNL1       -0.4942
      3 O           6.0174    2.7846    0.0000 O.2     1  UNL1       -0.2917
      4 O           2.5369   -0.2500    0.0000 O.3     1  UNL1       -0.5062
      5 O          10.3914   -1.7842    0.0000 O.3     1  UNL1       -0.5068
      6 C           6.9350    0.2292    0.0000 C.3     1  UNL1        0.1322
      7 C           6.9350    1.2708    0.0000 C.3     1  UNL1        0.0520
      8 C           5.1350    0.2500    0.0000 C.ar    1  UNL1        0.1423
      9 C           5.1350    1.2500    0.0000 C.ar    1  UNL1        0.1012
     10 C           6.0290    1.7847    0.0000 C.2     1  UNL1        0.1740
     11 C           4.2690   -0.2500    0.0000 C.ar    1  UNL1        0.0403
     12 C           7.7991   -0.2742    0.0000 C.ar    1  UNL1       -0.0067
     13 C           4.2690    1.7500    0.0000 C.ar    1  UNL1        0.1376
     14 C           4.2690   -1.2500    0.0000 C.3     1  UNL1       -0.0023
     15 C           3.4030    0.2500    0.0000 C.ar    1  UNL1        0.1273
     16 C           3.4030    1.2500    0.0000 C.ar    1  UNL1        0.0227
     17 C           7.7953   -1.2741    0.0000 C.ar    1  UNL1       -0.0516
     18 C           8.6671    0.2225    0.0000 C.ar    1  UNL1       -0.0516
     19 C           3.4030   -1.7500    0.0000 C.2     1  UNL1       -0.0807
     20 C           8.6594   -1.7775    0.0000 C.ar    1  UNL1       -0.0198
     21 C           9.5312   -0.2808    0.0000 C.ar    1  UNL1       -0.0198
     22 C           3.4030   -2.7500    0.0000 C.2     1  UNL1       -0.0793
     23 C           9.5273   -1.2808    0.0000 C.ar    1  UNL1        0.1169
     24 C           3.4030    3.2500    0.0000 C.3     1  UNL1        0.0788
     25 C           2.5369   -3.2500    0.0000 C.3     1  UNL1       -0.0440
     26 C           4.2690   -3.2500    0.0000 C.3     1  UNL1       -0.0440
     27 H           7.4726    0.5381    0.0000 H       1  UNL1        0.0789
     28 H           7.5459    1.1647    0.0000 H       1  UNL1        0.0385
     29 H           7.1441    1.8545    0.0000 H       1  UNL1        0.0385
     30 H           4.4810   -1.8326    0.0000 H       1  UNL1        0.0358
     31 H           4.8796   -1.1423    0.0000 H       1  UNL1        0.0358
     32 H           2.8660    1.5600    0.0000 H       1  UNL1        0.0691
     33 H           7.2571   -1.5821    0.0000 H       1  UNL1        0.0623
     34 H           8.6694    0.8425    0.0000 H       1  UNL1        0.0623
     35 H           2.8660   -1.4400    0.0000 H       1  UNL1        0.0575
     36 H           8.6570   -2.3975    0.0000 H       1  UNL1        0.0654
     37 H          10.0693    0.0271    0.0000 H       1  UNL1        0.0654
     38 H           2.0000    0.0600    0.0000 H       1  UNL1        0.2921
     39 H           3.7130    3.7869    0.0000 H       1  UNL1        0.0660
     40 H           2.8660    3.5600    0.0000 H       1  UNL1        0.0660
     41 H           3.0930    2.7131    0.0000 H       1  UNL1        0.0660
     42 H           2.2269   -2.7131    0.0000 H       1  UNL1        0.0274
     43 H           3.9590   -3.7869    0.0000 H       1  UNL1        0.0274
     44 H           4.8059   -3.5600    0.0000 H       1  UNL1        0.0274
     45 H           4.5790   -2.7131    0.0000 H       1  UNL1        0.0274
     46 H           2.0000   -3.5600    0.0000 H       1  UNL1        0.0274
     47 H           2.8469   -3.7869    0.0000 H       1  UNL1        0.0274
     48 H          10.9295   -1.4762    0.0000 H       1  UNL1        0.2921
@<TRIPOS>BOND
     1     1     6    1
     2     1     8    1
     3     2    13    1
     4     2    24    1
     5     3    10    2
     6     4    15    1
     7     4    38    1
     8     5    23    1
     9     5    48    1
    10     6     7    1
    11     6    12    1
    12     6    27    1
    13     7    10    1
    14     7    28    1
    15     7    29    1
    16     8     9   ar
    17     8    11   ar
    18     9    10    1
    19     9    13   ar
    20    11    14    1
    21    11    15   ar
    22    12    17   ar
    23    12    18   ar
    24    13    16   ar
    25    14    19    1
    26    14    30    1
    27    14    31    1
    28    15    16   ar
    29    16    32    1
    30    17    20   ar
    31    17    33    1
    32    18    21   ar
    33    18    34    1
    34    19    22    2
    35    19    35    1
    36    20    23   ar
    37    20    36    1
    38    21    23   ar
    39    21    37    1
    40    22    25    1
    41    22    26    1
    42    24    39    1
    43    24    40    1
    44    24    41    1
    45    25    42    1
    46    25    46    1
    47    25    47    1
    48    26    43    1
    49    26    44    1
    50    26    45    1
