@<TRIPOS>MOLECULE
IMPHY011983
 18 18 0 0 0
SMALL
GASTEIGER

@<TRIPOS>ATOM
      1 O           5.4641    1.4400    0.0000 O.2     1  UNL1       -0.2963
      2 C           2.8660   -0.0600    0.0000 C.ar    1  UNL1       -0.0249
      3 C           2.0000   -0.5600    0.0000 C.ar    1  UNL1       -0.0546
      4 C           3.7320   -0.5600    0.0000 C.ar    1  UNL1       -0.0546
      5 C           2.0000   -1.5600    0.0000 C.ar    1  UNL1       -0.0612
      6 C           3.7320   -1.5600    0.0000 C.ar    1  UNL1       -0.0612
      7 C           2.8660    0.9400    0.0000 C.2     1  UNL1       -0.0516
      8 C           2.8660   -2.0600    0.0000 C.ar    1  UNL1       -0.0617
      9 C           3.7320    1.4400    0.0000 C.2     1  UNL1       -0.0219
     10 C           4.5981    0.9400    0.0000 C.2     1  UNL1        0.1431
     11 H           1.4631   -0.2500    0.0000 H       1  UNL1        0.0623
     12 H           4.2690   -0.2500    0.0000 H       1  UNL1        0.0623
     13 H           2.3291    1.2500    0.0000 H       1  UNL1        0.0624
     14 H           1.4631   -1.8700    0.0000 H       1  UNL1        0.0618
     15 H           4.2690   -1.8700    0.0000 H       1  UNL1        0.0618
     16 H           2.8660   -2.6800    0.0000 H       1  UNL1        0.0618
     17 H           3.7320    2.0600    0.0000 H       1  UNL1        0.0650
     18 H           4.5981    0.3200    0.0000 H       1  UNL1        0.1075
@<TRIPOS>BOND
     1     1    10    2
     2     2     3   ar
     3     2     4   ar
     4     2     7    1
     5     3     5   ar
     6     3    11    1
     7     4     6   ar
     8     4    12    1
     9     5     8   ar
    10     5    14    1
    11     6     8   ar
    12     6    15    1
    13     7     9    2
    14     7    13    1
    15     8    16    1
    16     9    10    1
    17     9    17    1
    18    10    18    1
