@<TRIPOS>MOLECULE
IMPHY005306
 73 78 0 0 0
SMALL
GASTEIGER

@<TRIPOS>ATOM
      1 O           5.9295    0.3638    0.0000 O.2     1  UNL1       -0.4701
      2 O           6.8671   -1.1823    0.0000 O.3     1  UNL1       -0.3095
      3 O           9.5707   -1.6605    0.0000 O.3     1  UNL1       -0.3935
      4 O           5.1350   -1.1823    0.0000 O.3     1  UNL1       -0.3404
      5 O           6.0609    3.4926    0.0000 O.3     1  UNL1       -0.4646
      6 O           6.8671   -3.1823    0.0000 O.3     1  UNL1       -0.3841
      7 O           7.7925    3.4526    0.0000 O.2     1  UNL1       -0.2452
      8 O           5.1350   -4.1823    0.0000 O.3     1  UNL1       -0.3864
      9 O           3.4030   -3.1823    0.0000 O.3     1  UNL1       -0.3865
     10 O           2.5369   -1.6823    0.0000 O.3     1  UNL1       -0.3924
     11 N           9.6047    0.3638    0.0000 N.3     1  UNL1       -0.2881
     12 N          10.7085    2.8230    0.0000 N.ar    1  UNL1       -0.3564
     13 C           7.8046    0.3638    0.0000 C.3     1  UNL1        0.0465
     14 C           8.7047   -0.1605    0.0000 C.3     1  UNL1        0.0432
     15 C           7.8166    1.4053    0.0000 C.3     1  UNL1        0.0056
     16 C           9.6163    1.3637    0.0000 C.3     1  UNL1        0.0518
     17 C           8.7286    1.9087    0.0000 C.3     1  UNL1       -0.0242
     18 C           6.8671   -0.1823    0.0000 C.3     1  UNL1        0.2083
     19 C          10.4649   -0.1462    0.0000 C.3     1  UNL1        0.0039
     20 C          10.4880    1.8537    0.0000 C.ar    1  UNL1        0.0376
     21 C           6.8920    1.9730    0.0000 C.2     1  UNL1        0.0744
     22 C          11.3367    0.3437    0.0000 C.3     1  UNL1       -0.0125
     23 C           8.7047   -1.1605    0.0000 C.3     1  UNL1        0.0603
     24 C          11.3482    1.3437    0.0000 C.ar    1  UNL1       -0.0164
     25 C           5.9421    1.4487    0.0000 C.2     1  UNL1        0.0981
     26 C          12.0929    2.0022    0.0000 C.ar    1  UNL1        0.0032
     27 C          11.6983    2.9146    0.0000 C.ar    1  UNL1        0.0470
     28 C           6.0010   -1.6823    0.0000 C.3     1  UNL1        0.1918
     29 C           6.9151    2.9727    0.0000 C.2     1  UNL1        0.3381
     30 C           6.0010   -2.6823    0.0000 C.3     1  UNL1        0.1342
     31 C           5.1350   -3.1823    0.0000 C.3     1  UNL1        0.1141
     32 C          13.1195    1.8671    0.0000 C.ar    1  UNL1       -0.0523
     33 C           4.2690   -1.6823    0.0000 C.3     1  UNL1        0.1130
     34 C           4.2690   -2.6823    0.0000 C.3     1  UNL1        0.1119
     35 C          12.3030    3.7552    0.0000 C.ar    1  UNL1       -0.0378
     36 C          13.7435    2.6935    0.0000 C.ar    1  UNL1       -0.0611
     37 C          13.3324    3.6439    0.0000 C.ar    1  UNL1       -0.0598
     38 C           3.4030   -1.1823    0.0000 C.3     1  UNL1        0.0730
     39 C           6.0840    4.4923    0.0000 C.3     1  UNL1        0.0820
     40 H           7.8046   -0.4862    0.0000 H       1  UNL1        0.0383
     41 H           9.2422   -0.4695    0.0000 H       1  UNL1        0.0490
     42 H           7.8363    2.2551    0.0000 H       1  UNL1        0.0358
     43 H           9.6327    2.2136    0.0000 H       1  UNL1        0.0527
     44 H           9.1386    2.3737    0.0000 H       1  UNL1        0.0290
     45 H           8.3405    2.3922    0.0000 H       1  UNL1        0.0290
     46 H           7.4046   -0.4913    0.0000 H       1  UNL1        0.1060
     47 H          10.0609   -0.6165    0.0000 H       1  UNL1        0.0430
     48 H          10.8579   -0.6257    0.0000 H       1  UNL1        0.0430
     49 H          11.5420   -0.2413    0.0000 H       1  UNL1        0.0326
     50 H          11.9484    0.4443    0.0000 H       1  UNL1        0.0326
     51 H           8.0941   -1.0528    0.0000 H       1  UNL1        0.0573
     52 H           8.4926   -1.7431    0.0000 H       1  UNL1        0.0573
     53 H          10.2998    3.2892    0.0000 H       1  UNL1        0.1656
     54 H           5.4100    1.7669    0.0000 H       1  UNL1        0.1029
     55 H           6.0010   -1.0623    0.0000 H       1  UNL1        0.0939
     56 H           6.0010   -3.3023    0.0000 H       1  UNL1        0.0671
     57 H           9.5707   -2.2805    0.0000 H       1  UNL1        0.2095
     58 H           4.5981   -3.4923    0.0000 H       1  UNL1        0.0648
     59 H          13.3590    1.2952    0.0000 H       1  UNL1        0.0624
     60 H           3.7320   -2.3723    0.0000 H       1  UNL1        0.0647
     61 H           4.2690   -1.0623    0.0000 H       1  UNL1        0.0647
     62 H          12.0503    4.3214    0.0000 H       1  UNL1        0.0638
     63 H          14.3591    2.6197    0.0000 H       1  UNL1        0.0618
     64 H          13.7003    4.1430    0.0000 H       1  UNL1        0.0618
     65 H           3.8015   -0.7074    0.0000 H       1  UNL1        0.0584
     66 H           3.0044   -0.7074    0.0000 H       1  UNL1        0.0584
     67 H           6.8671   -3.8023    0.0000 H       1  UNL1        0.2101
     68 H           4.5981   -4.4923    0.0000 H       1  UNL1        0.2100
     69 H           3.4030   -3.8023    0.0000 H       1  UNL1        0.2100
     70 H           6.7038    4.4780    0.0000 H       1  UNL1        0.0661
     71 H           6.0983    5.1122    0.0000 H       1  UNL1        0.0661
     72 H           5.4642    4.5067    0.0000 H       1  UNL1        0.0661
     73 H           2.0000   -1.3723    0.0000 H       1  UNL1        0.2095
@<TRIPOS>BOND
     1     1    18    1
     2     1    25    1
     3    18     2    1
     4    28     2    1
     5     3    23    1
     6     3    57    1
     7     4    28    1
     8     4    33    1
     9     5    29    1
    10     5    39    1
    11    30     6    1
    12     6    67    1
    13     7    29    2
    14    31     8    1
    15     8    68    1
    16    34     9    1
    17     9    69    1
    18    10    38    1
    19    10    73    1
    20    11    14    1
    21    11    16    1
    22    11    19    1
    23    12    20   ar
    24    12    27   ar
    25    12    53    1
    26    13    14    1
    27    13    15    1
    28    13    18    1
    29    13    40    1
    30    14    23    1
    31    14    41    1
    32    15    17    1
    33    15    21    1
    34    15    42    1
    35    16    17    1
    36    16    20    1
    37    16    43    1
    38    17    44    1
    39    17    45    1
    40    18    46    1
    41    19    22    1
    42    19    47    1
    43    19    48    1
    44    20    24   ar
    45    21    25    2
    46    21    29    1
    47    22    24    1
    48    22    49    1
    49    22    50    1
    50    23    51    1
    51    23    52    1
    52    24    26   ar
    53    25    54    1
    54    26    27   ar
    55    26    32   ar
    56    27    35   ar
    57    28    30    1
    58    28    55    1
    59    30    31    1
    60    30    56    1
    61    31    34    1
    62    31    58    1
    63    32    36   ar
    64    32    59    1
    65    33    34    1
    66    33    38    1
    67    33    61    1
    68    34    60    1
    69    35    37   ar
    70    35    62    1
    71    36    37   ar
    72    36    63    1
    73    37    64    1
    74    38    65    1
    75    38    66    1
    76    39    70    1
    77    39    71    1
    78    39    72    1
