@<TRIPOS>MOLECULE
IMPHY004670
 39 41 0 0 0
SMALL
GASTEIGER

@<TRIPOS>ATOM
      1 C           3.5053    1.0852    0.0000 C.3     1  UNL1       -0.0199
      2 C           4.0445   -0.4202    0.0000 C.3     1  UNL1       -0.0054
      3 C           4.0670    0.6582    0.0000 C.3     1  UNL1       -0.0317
      4 C           2.4493   -0.3977    0.0000 C.3     1  UNL1       -0.0193
      5 C           2.9885    0.2987    0.0000 C.3     1  UNL1       -0.0429
      6 C           2.7864    1.2873    0.0000 C.3     1  UNL1       -0.0460
      7 C           4.9882    0.5010    0.0000 C.3     1  UNL1       -0.0405
      8 C           3.0494   -0.9887    0.0000 C.2     1  UNL1       -0.0671
      9 C           5.1158   -0.8621    0.0000 C.3     1  UNL1       -0.0432
     10 C           2.0000    0.5683    0.0000 C.3     1  UNL1       -0.0460
     11 C           5.5723   -0.1730    0.0000 C.3     1  UNL1       -0.0494
     12 C           3.9510    1.9803    0.0000 C.3     1  UNL1       -0.0585
     13 C           4.1084   -1.4182    0.0000 C.3     1  UNL1       -0.0553
     14 C           5.4789    1.3723    0.0000 C.3     1  UNL1       -0.0621
     15 C           2.9204   -1.9803    0.0000 C.2     1  UNL1       -0.0986
     16 H           4.3138    1.2269    0.0000 H       1  UNL1        0.0309
     17 H           1.9426   -0.7551    0.0000 H       1  UNL1        0.0346
     18 H           2.9917    0.9187    0.0000 H       1  UNL1        0.0274
     19 H           3.3472   -0.2070    0.0000 H       1  UNL1        0.0274
     20 H           3.0613    1.8430    0.0000 H       1  UNL1        0.0271
     21 H           2.2908    1.6600    0.0000 H       1  UNL1        0.0271
     22 H           5.6050    0.5633    0.0000 H       1  UNL1        0.0301
     23 H           4.8428   -1.4188    0.0000 H       1  UNL1        0.0274
     24 H           5.6537   -1.1704    0.0000 H       1  UNL1        0.0274
     25 H           1.6303    1.0660    0.0000 H       1  UNL1        0.0271
     26 H           1.4673    0.2511    0.0000 H       1  UNL1        0.0271
     27 H           6.0561   -0.5608    0.0000 H       1  UNL1        0.0268
     28 H           6.0022    0.2737    0.0000 H       1  UNL1        0.0268
     29 H           4.5060    1.7040    0.0000 H       1  UNL1        0.0235
     30 H           4.2274    2.5353    0.0000 H       1  UNL1        0.0235
     31 H           3.3960    2.2567    0.0000 H       1  UNL1        0.0235
     32 H           3.4896   -1.4577    0.0000 H       1  UNL1        0.0238
     33 H           4.1480   -2.0369    0.0000 H       1  UNL1        0.0238
     34 H           4.7271   -1.3786    0.0000 H       1  UNL1        0.0238
     35 H           6.0191    1.0681    0.0000 H       1  UNL1        0.0233
     36 H           5.7831    1.9126    0.0000 H       1  UNL1        0.0233
     37 H           4.9386    1.6765    0.0000 H       1  UNL1        0.0233
     38 H           2.3479   -2.2185    0.0000 H       1  UNL1        0.0535
     39 H           3.4128   -2.3570    0.0000 H       1  UNL1        0.0535
@<TRIPOS>BOND
     1     1     2    1
     2     1     3    1
     3     1     6    1
     4     1    12    1
     5     2     8    1
     6     2     9    1
     7     2    13    1
     8     3     5    1
     9     3     7    1
    10     3    16    1
    11     4     5    1
    12     4     8    1
    13     4    10    1
    14     4    17    1
    15     5    18    1
    16     5    19    1
    17     6    10    1
    18     6    20    1
    19     6    21    1
    20     7    11    1
    21     7    14    1
    22     7    22    1
    23     8    15    2
    24     9    11    1
    25     9    23    1
    26     9    24    1
    27    10    25    1
    28    10    26    1
    29    11    27    1
    30    11    28    1
    31    12    29    1
    32    12    30    1
    33    12    31    1
    34    13    32    1
    35    13    33    1
    36    13    34    1
    37    14    35    1
    38    14    36    1
    39    14    37    1
    40    15    38    1
    41    15    39    1
