@<TRIPOS>MOLECULE
IMPHY010089
 38 40 0 0 0
SMALL
GASTEIGER

@<TRIPOS>ATOM
      1 O           5.7619   -0.8969    0.0000 O.3     1  UNL1       -0.3912
      2 O           3.1452    2.3843    0.0000 O.2     1  UNL1       -0.2965
      3 C           4.0791   -0.7073    0.0000 C.3     1  UNL1        0.0036
      4 C           3.1781   -0.2734    0.0000 C.3     1  UNL1       -0.0209
      5 C           3.9431   -1.6920    0.0000 C.3     1  UNL1       -0.0356
      6 C           3.9722    0.4695    0.0000 C.3     1  UNL1       -0.0349
      7 C           4.9800   -0.2734    0.0000 C.3     1  UNL1        0.0620
      8 C           2.9556    0.7015    0.0000 C.3     1  UNL1        0.0271
      9 C           4.5791    1.4834    0.0000 C.3     1  UNL1        0.0210
     10 C           2.4930   -0.9937    0.0000 C.3     1  UNL1       -0.0485
     11 C           5.2025    0.7015    0.0000 C.3     1  UNL1       -0.0168
     12 C           2.9648   -1.8687    0.0000 C.3     1  UNL1       -0.0496
     13 C           3.5791    1.4834    0.0000 C.2     1  UNL1        0.1424
     14 C           4.6647   -2.3843    0.0000 C.3     1  UNL1       -0.0618
     15 C           2.2225    1.3817    0.0000 C.3     1  UNL1       -0.0528
     16 C           2.0000    0.4068    0.0000 C.3     1  UNL1       -0.0528
     17 H           2.5802   -0.1092    0.0000 H       1  UNL1        0.0316
     18 H           3.7640   -2.2856    0.0000 H       1  UNL1        0.0304
     19 H           3.5644    0.9365    0.0000 H       1  UNL1        0.0278
     20 H           3.4022    0.2257    0.0000 H       1  UNL1        0.0278
     21 H           5.5652   -0.0686    0.0000 H       1  UNL1        0.0599
     22 H           4.7682    2.3120    0.0000 H       1  UNL1        0.0378
     23 H           2.0911   -0.5216    0.0000 H       1  UNL1        0.0268
     24 H           1.9812   -1.3437    0.0000 H       1  UNL1        0.0268
     25 H           5.7612    0.4325    0.0000 H       1  UNL1        0.0297
     26 H           5.5891    1.1863    0.0000 H       1  UNL1        0.0297
     27 H           2.3912   -2.1040    0.0000 H       1  UNL1        0.0268
     28 H           3.1385   -2.4638    0.0000 H       1  UNL1        0.0268
     29 H           4.2354   -2.8317    0.0000 H       1  UNL1        0.0233
     30 H           5.1121   -2.8136    0.0000 H       1  UNL1        0.0233
     31 H           5.0939   -1.9369    0.0000 H       1  UNL1        0.0233
     32 H           2.6442    1.8362    0.0000 H       1  UNL1        0.0239
     33 H           1.7680    1.8034    0.0000 H       1  UNL1        0.0239
     34 H           1.8008    0.9272    0.0000 H       1  UNL1        0.0239
     35 H           1.8172    0.9992    0.0000 H       1  UNL1        0.0239
     36 H           1.4075    0.2240    0.0000 H       1  UNL1        0.0239
     37 H           2.1828   -0.1857    0.0000 H       1  UNL1        0.0239
     38 H           6.3390   -0.6704    0.0000 H       1  UNL1        0.2098
@<TRIPOS>BOND
     1     7     1    1
     2     1    38    1
     3     2    13    2
     4     3     4    1
     5     3     5    1
     6     3     6    1
     7     3     7    1
     8     4     8    1
     9     4    10    1
    10     4    17    1
    11     5    12    1
    12     5    14    1
    13     5    18    1
    14     6     9    1
    15     6    19    1
    16     6    20    1
    17     7    11    1
    18     7    21    1
    19     8    13    1
    20     8    15    1
    21     8    16    1
    22     9    11    1
    23     9    13    1
    24     9    22    1
    25    10    12    1
    26    10    23    1
    27    10    24    1
    28    11    25    1
    29    11    26    1
    30    12    27    1
    31    12    28    1
    32    14    29    1
    33    14    30    1
    34    14    31    1
    35    15    32    1
    36    15    33    1
    37    15    34    1
    38    16    35    1
    39    16    36    1
    40    16    37    1
