@<TRIPOS>MOLECULE
IMPHY015784
 59 61 0 0 0
SMALL
GASTEIGER

@<TRIPOS>ATOM
      1 O           6.0682   -0.5328    0.0000 O.3     1  UNL1       -0.4907
      2 O           8.6663   -0.0328    0.0000 O.3     1  UNL1       -0.5061
      3 O           2.5381   -0.5569    0.0000 O.3     1  UNL1       -0.5064
      4 O          10.3984    2.9672    0.0000 O.3     1  UNL1       -0.5064
      5 C           6.9343    0.9672    0.0000 C.3     1  UNL1        0.0258
      6 C           6.0682    1.4672    0.0000 C.3     1  UNL1       -0.0142
      7 C           6.9343   -0.0328    0.0000 C.3     1  UNL1        0.0968
      8 C           5.2022    0.9672    0.0000 C.ar    1  UNL1       -0.0045
      9 C           7.8003    1.4672    0.0000 C.ar    1  UNL1        0.0012
     10 C           5.2022   -0.0328    0.0000 C.ar    1  UNL1        0.1306
     11 C           4.3083   -0.5674    0.0000 C.ar    1  UNL1        0.0396
     12 C           8.6663    0.9672    0.0000 C.ar    1  UNL1        0.1273
     13 C           4.3083    1.5019    0.0000 C.ar    1  UNL1       -0.0516
     14 C           7.8003    2.4672    0.0000 C.ar    1  UNL1       -0.0513
     15 C           9.5323    1.4672    0.0000 C.ar    1  UNL1        0.0394
     16 C           3.4022   -0.0536    0.0000 C.ar    1  UNL1        0.1238
     17 C           4.3198   -1.5674    0.0000 C.3     1  UNL1       -0.0023
     18 C           3.4022    0.9881    0.0000 C.ar    1  UNL1       -0.0194
     19 C           8.6663    2.9672    0.0000 C.ar    1  UNL1       -0.0194
     20 C           9.5323    2.4672    0.0000 C.ar    1  UNL1        0.1238
     21 C          10.3984    0.9672    0.0000 C.3     1  UNL1       -0.0023
     22 C           3.4597   -2.0773    0.0000 C.2     1  UNL1       -0.0807
     23 C          11.2644    1.4672    0.0000 C.2     1  UNL1       -0.0807
     24 C           3.4712   -3.0773    0.0000 C.2     1  UNL1       -0.0793
     25 C          12.1304    0.9672    0.0000 C.2     1  UNL1       -0.0793
     26 C           2.6110   -3.5872    0.0000 C.3     1  UNL1       -0.0440
     27 C           4.3430   -3.5672    0.0000 C.3     1  UNL1       -0.0440
     28 C          12.9965    1.4672    0.0000 C.3     1  UNL1       -0.0440
     29 C          12.1304   -0.0328    0.0000 C.3     1  UNL1       -0.0440
     30 H           7.6704    0.5422    0.0000 H       1  UNL1        0.0386
     31 H           6.4668    1.9422    0.0000 H       1  UNL1        0.0321
     32 H           5.6697    1.9422    0.0000 H       1  UNL1        0.0321
     33 H           7.1463   -0.6154    0.0000 H       1  UNL1        0.0703
     34 H           7.5449    0.0749    0.0000 H       1  UNL1        0.0703
     35 H           4.3154    2.1219    0.0000 H       1  UNL1        0.0623
     36 H           7.2634    2.7772    0.0000 H       1  UNL1        0.0623
     37 H           4.5386   -2.1475    0.0000 H       1  UNL1        0.0358
     38 H           4.9291   -1.4526    0.0000 H       1  UNL1        0.0358
     39 H           2.8665    1.3001    0.0000 H       1  UNL1        0.0654
     40 H           8.6663    3.5872    0.0000 H       1  UNL1        0.0654
     41 H           9.9998    0.4923    0.0000 H       1  UNL1        0.0358
     42 H          10.7969    0.4923    0.0000 H       1  UNL1        0.0358
     43 H           2.9192   -1.7736    0.0000 H       1  UNL1        0.0575
     44 H           9.2033   -0.3428    0.0000 H       1  UNL1        0.2922
     45 H          11.2644    2.0872    0.0000 H       1  UNL1        0.0575
     46 H           2.0000   -0.2490    0.0000 H       1  UNL1        0.2921
     47 H          10.3984    3.5872    0.0000 H       1  UNL1        0.2921
     48 H           2.2948   -3.0539    0.0000 H       1  UNL1        0.0274
     49 H           2.0777   -3.9034    0.0000 H       1  UNL1        0.0274
     50 H           2.9272   -4.1206    0.0000 H       1  UNL1        0.0274
     51 H           4.0392   -4.1077    0.0000 H       1  UNL1        0.0274
     52 H           4.8835   -3.8710    0.0000 H       1  UNL1        0.0274
     53 H           4.6468   -3.0267    0.0000 H       1  UNL1        0.0274
     54 H          13.3065    0.9303    0.0000 H       1  UNL1        0.0274
     55 H          13.5334    1.7772    0.0000 H       1  UNL1        0.0274
     56 H          12.6865    2.0042    0.0000 H       1  UNL1        0.0274
     57 H          11.5104   -0.0328    0.0000 H       1  UNL1        0.0274
     58 H          12.1304   -0.6528    0.0000 H       1  UNL1        0.0274
     59 H          12.7504   -0.0328    0.0000 H       1  UNL1        0.0274
@<TRIPOS>BOND
     1     1     7    1
     2     1    10    1
     3     2    12    1
     4     2    44    1
     5     3    16    1
     6     3    46    1
     7     4    20    1
     8     4    47    1
     9     5     6    1
    10     5     7    1
    11     5     9    1
    12     5    30    1
    13     6     8    1
    14     6    31    1
    15     6    32    1
    16     7    33    1
    17     7    34    1
    18     8    10   ar
    19     8    13   ar
    20     9    12   ar
    21     9    14   ar
    22    10    11   ar
    23    11    16   ar
    24    11    17    1
    25    12    15   ar
    26    13    18   ar
    27    13    35    1
    28    14    19   ar
    29    14    36    1
    30    15    20   ar
    31    15    21    1
    32    16    18   ar
    33    17    22    1
    34    17    37    1
    35    17    38    1
    36    18    39    1
    37    19    20   ar
    38    19    40    1
    39    21    23    1
    40    21    41    1
    41    21    42    1
    42    22    24    2
    43    22    43    1
    44    23    25    2
    45    23    45    1
    46    24    26    1
    47    24    27    1
    48    25    28    1
    49    25    29    1
    50    26    48    1
    51    26    49    1
    52    26    50    1
    53    27    51    1
    54    27    52    1
    55    27    53    1
    56    28    54    1
    57    28    55    1
    58    28    56    1
    59    29    57    1
    60    29    58    1
    61    29    59    1
