@<TRIPOS>MOLECULE
IMPHY003207
 85 91 0 0 0
SMALL
GASTEIGER

@<TRIPOS>ATOM
      1 O           4.7651   -0.9129    0.0000 O.3     1  UNL1       -0.3851
      2 O           6.2827   -2.0818    0.0000 O.3     1  UNL1       -0.3790
      3 O           8.1053    1.6800    0.0000 O.3     1  UNL1       -0.3791
      4 O           4.3889    1.4285    0.0000 O.3     1  UNL1       -0.4545
      5 O           5.9801    2.9919    0.0000 O.3     1  UNL1       -0.3822
      6 O           3.9760   -0.4717    0.0000 O.3     1  UNL1       -0.3862
      7 O           3.9877    2.1380    0.0000 O.3     1  UNL1       -0.3741
      8 O           9.8562   -0.5901    0.0000 O.3     1  UNL1       -0.3910
      9 O           8.9713   -2.5551    0.0000 O.3     1  UNL1       -0.3823
     10 O           3.1611    0.2068    0.0000 O.2     1  UNL1       -0.2449
     11 N           9.3007   -0.1490    0.0000 N.3     1  UNL1       -0.3006
     12 C           7.3540    0.2462    0.0000 C.3     1  UNL1        0.0222
     13 C           7.3540   -0.6213    0.0000 C.3     1  UNL1        0.0067
     14 C           6.6757    0.7872    0.0000 C.3     1  UNL1       -0.0194
     15 C           8.3560    0.1402    0.0000 C.3     1  UNL1        0.0267
     16 C           5.8299   -0.9692    0.0000 C.3     1  UNL1        0.0335
     17 C           5.8299    0.5941    0.0000 C.3     1  UNL1        0.0343
     18 C           5.4534   -0.1876    0.0000 C.3     1  UNL1        0.1074
     19 C           6.6757   -1.1623    0.0000 C.3     1  UNL1        0.0694
     20 C           8.1053   -1.0551    0.0000 C.3     1  UNL1        0.0385
     21 C           8.1053    0.6800    0.0000 C.3     1  UNL1        0.0683
     22 C           6.7535    1.6512    0.0000 C.3     1  UNL1       -0.0140
     23 C           5.9557    1.9922    0.0000 C.3     1  UNL1        0.1318
     24 C           5.3849    1.3389    0.0000 C.3     1  UNL1        0.1402
     25 C           4.8085    0.0824    0.0000 C.3     1  UNL1        0.1134
     26 C           9.3007   -0.9009    0.0000 C.3     1  UNL1        0.0094
     27 C           8.8567   -0.6213    0.0000 C.3     1  UNL1        0.0668
     28 C           4.8085    1.5669    0.0000 C.3     1  UNL1        0.1189
     29 C           8.8567    0.2462    0.0000 C.3     1  UNL1        0.0008
     30 C           8.1053   -2.0551    0.0000 C.3     1  UNL1        0.0568
     31 C          10.1046    0.4457    0.0000 C.3     1  UNL1       -0.0124
     32 C           6.8825   -2.8819    0.0000 C.3     1  UNL1        0.0368
     33 C           8.9714    2.1800    0.0000 C.3     1  UNL1        0.0368
     34 C           3.4223    1.1721    0.0000 C.2     1  UNL1        0.3395
     35 C           4.0718    3.1344    0.0000 C.3     1  UNL1        0.0370
     36 C           8.9713   -3.5551    0.0000 C.3     1  UNL1        0.0365
     37 C           2.7170    1.8810    0.0000 C.ar    1  UNL1        0.0590
     38 C           1.7504    1.6246    0.0000 C.ar    1  UNL1       -0.0478
     39 C           2.9782    2.8462    0.0000 C.ar    1  UNL1       -0.0478
     40 C           1.0451    2.3334    0.0000 C.ar    1  UNL1       -0.0610
     41 C           2.2729    3.5551    0.0000 C.ar    1  UNL1       -0.0610
     42 C           1.3063    3.2987    0.0000 C.ar    1  UNL1       -0.0617
     43 H           7.4175   -1.4690    0.0000 H       1  UNL1        0.0340
     44 H           7.4573    1.1212    0.0000 H       1  UNL1        0.0313
     45 H           8.5259    0.9730    0.0000 H       1  UNL1        0.0473
     46 H           5.5591   -1.7750    0.0000 H       1  UNL1        0.0370
     47 H           4.9807    0.5560    0.0000 H       1  UNL1        0.0369
     48 H           6.8761   -1.7490    0.0000 H       1  UNL1        0.0603
     49 H           7.5684    0.9900    0.0000 H       1  UNL1        0.0603
     50 H           6.9362    2.2437    0.0000 H       1  UNL1        0.0298
     51 H           7.3618    1.5314    0.0000 H       1  UNL1        0.0298
     52 H           5.1541    1.9143    0.0000 H       1  UNL1        0.0768
     53 H           4.2620    0.3751    0.0000 H       1  UNL1        0.0649
     54 H           9.9201   -0.8744    0.0000 H       1  UNL1        0.0434
     55 H           9.3536   -1.5186    0.0000 H       1  UNL1        0.0434
     56 H           9.0265   -1.2176    0.0000 H       1  UNL1        0.0601
     57 H           4.8867    2.1819    0.0000 H       1  UNL1        0.0653
     58 H           9.0687    0.8288    0.0000 H       1  UNL1        0.0315
     59 H           9.4672    0.1386    0.0000 H       1  UNL1        0.0315
     60 H           7.8933   -2.6377    0.0000 H       1  UNL1        0.0566
     61 H           7.4948   -1.9475    0.0000 H       1  UNL1        0.0566
     62 H           4.7272   -1.5318    0.0000 H       1  UNL1        0.2103
     63 H           9.7359    0.9441    0.0000 H       1  UNL1        0.0391
     64 H          10.6031    0.8144    0.0000 H       1  UNL1        0.0391
     65 H          10.4733   -0.0528    0.0000 H       1  UNL1        0.0391
     66 H           5.4509    3.3150    0.0000 H       1  UNL1        0.2104
     67 H           4.0155   -1.0904    0.0000 H       1  UNL1        0.2100
     68 H          10.1828   -1.1171    0.0000 H       1  UNL1        0.2098
     69 H           7.3786   -2.5100    0.0000 H       1  UNL1        0.0524
     70 H           7.2544   -3.3780    0.0000 H       1  UNL1        0.0524
     71 H           6.3864   -3.2538    0.0000 H       1  UNL1        0.0524
     72 H           8.6614    2.7170    0.0000 H       1  UNL1        0.0524
     73 H           9.5083    2.4900    0.0000 H       1  UNL1        0.0524
     74 H           9.2814    1.6431    0.0000 H       1  UNL1        0.0524
     75 H           3.4540    3.1866    0.0000 H       1  UNL1        0.0524
     76 H           4.1240    3.7522    0.0000 H       1  UNL1        0.0524
     77 H           4.6896    3.0823    0.0000 H       1  UNL1        0.0524
     78 H           9.5914   -3.5551    0.0000 H       1  UNL1        0.0523
     79 H           8.9713   -4.1751    0.0000 H       1  UNL1        0.0523
     80 H           8.3514   -3.5551    0.0000 H       1  UNL1        0.0523
     81 H           1.5885    1.0261    0.0000 H       1  UNL1        0.0626
     82 H           3.5775    3.0052    0.0000 H       1  UNL1        0.0626
     83 H           0.4458    2.1745    0.0000 H       1  UNL1        0.0618
     84 H           2.4348    4.1536    0.0000 H       1  UNL1        0.0618
     85 H           0.8690    3.7382    0.0000 H       1  UNL1        0.0618
@<TRIPOS>BOND
     1    18     1    1
     2     1    62    1
     3    19     2    1
     4     2    32    1
     5    21     3    1
     6     3    33    1
     7    24     4    1
     8     4    34    1
     9    23     5    1
    10     5    66    1
    11    25     6    1
    12     6    67    1
    13    28     7    1
    14     7    35    1
    15    27     8    1
    16     8    68    1
    17     9    30    1
    18     9    36    1
    19    10    34    2
    20    11    15    1
    21    11    26    1
    22    11    31    1
    23    12    13    1
    24    12    14    1
    25    12    15    1
    26    12    21    1
    27    13    19    1
    28    13    20    1
    29    13    43    1
    30    14    17    1
    31    14    22    1
    32    14    44    1
    33    15    16    1
    34    15    45    1
    35    16    18    1
    36    16    19    1
    37    16    46    1
    38    17    18    1
    39    17    24    1
    40    17    47    1
    41    18    25    1
    42    19    48    1
    43    20    26    1
    44    20    27    1
    45    20    30    1
    46    21    29    1
    47    21    49    1
    48    22    23    1
    49    22    50    1
    50    22    51    1
    51    23    24    1
    52    23    28    1
    53    24    52    1
    54    25    28    1
    55    25    53    1
    56    26    54    1
    57    26    55    1
    58    27    29    1
    59    27    56    1
    60    28    57    1
    61    29    58    1
    62    29    59    1
    63    30    60    1
    64    30    61    1
    65    31    63    1
    66    31    64    1
    67    31    65    1
    68    32    69    1
    69    32    70    1
    70    32    71    1
    71    33    72    1
    72    33    73    1
    73    33    74    1
    74    34    37    1
    75    35    75    1
    76    35    76    1
    77    35    77    1
    78    36    78    1
    79    36    79    1
    80    36    80    1
    81    37    38   ar
    82    37    39   ar
    83    38    40   ar
    84    38    81    1
    85    39    41   ar
    86    39    82    1
    87    40    42   ar
    88    40    83    1
    89    41    42   ar
    90    41    84    1
    91    42    85    1
