@<TRIPOS>MOLECULE
IMPHY004128
 35 39 0 0 0
SMALL
GASTEIGER

@<TRIPOS>ATOM
      1 O           8.6480    1.5705    0.0000 O.2     1  UNL1       -0.2669
      2 N           6.9654    1.0205    0.0000 N.ar    1  UNL1       -0.2908
      3 N           4.5124   -0.0969    0.0000 N.ar    1  UNL1       -0.3515
      4 N           6.6028   -0.7181    0.0000 N.ar    1  UNL1       -0.2272
      5 C           5.0091    1.4363    0.0000 C.ar    1  UNL1       -0.0097
      6 C           5.6782    2.1795    0.0000 C.3     1  UNL1       -0.0068
      7 C           5.3181    0.4853    0.0000 C.ar    1  UNL1        0.0867
      8 C           6.6564    1.9716    0.0000 C.3     1  UNL1        0.0322
      9 C           6.2962    0.2774    0.0000 C.ar    1  UNL1        0.1607
     10 C           4.0150    1.4338    0.0000 C.ar    1  UNL1        0.0036
     11 C           3.7086    0.4881    0.0000 C.ar    1  UNL1        0.0472
     12 C           7.9875    0.8197    0.0000 C.ar    1  UNL1        0.2621
     13 C           8.3170   -0.1685    0.0000 C.ar    1  UNL1        0.0649
     14 C           3.3334    2.2132    0.0000 C.ar    1  UNL1       -0.0523
     15 C           7.6200   -0.9426    0.0000 C.ar    1  UNL1        0.0786
     16 C           2.6994    0.2563    0.0000 C.ar    1  UNL1       -0.0378
     17 C           2.3191    2.0049    0.0000 C.ar    1  UNL1       -0.0611
     18 C           2.0000    1.0198    0.0000 C.ar    1  UNL1       -0.0598
     19 C           9.3816   -0.3777    0.0000 C.ar    1  UNL1       -0.0474
     20 C           7.9393   -1.9795    0.0000 C.ar    1  UNL1       -0.0355
     21 C           9.7248   -1.4069    0.0000 C.ar    1  UNL1       -0.0609
     22 C           8.9988   -2.2132    0.0000 C.ar    1  UNL1       -0.0597
     23 H           5.9105    2.7543    0.0000 H       1  UNL1        0.0331
     24 H           5.1524    2.5080    0.0000 H       1  UNL1        0.0331
     25 H           7.2703    2.0578    0.0000 H       1  UNL1        0.0496
     26 H           6.6780    2.5912    0.0000 H       1  UNL1        0.0496
     27 H           4.5113   -0.7169    0.0000 H       1  UNL1        0.1660
     28 H           3.5313    2.8008    0.0000 H       1  UNL1        0.0624
     29 H           2.5152   -0.3357    0.0000 H       1  UNL1        0.0638
     30 H           1.9056    2.4669    0.0000 H       1  UNL1        0.0618
     31 H           1.3942    0.8881    0.0000 H       1  UNL1        0.0618
     32 H           9.7911    0.0879    0.0000 H       1  UNL1        0.0626
     33 H           7.5192   -2.4354    0.0000 H       1  UNL1        0.0639
     34 H          10.3318   -1.5335    0.0000 H       1  UNL1        0.0618
     35 H           9.1881   -2.8036    0.0000 H       1  UNL1        0.0618
@<TRIPOS>BOND
     1     1    12    2
     2     2     8    1
     3     2     9   ar
     4     2    12   ar
     5     3     7   ar
     6     3    11   ar
     7     3    27    1
     8     4     9   ar
     9     4    15   ar
    10     5     6    1
    11     5     7   ar
    12     5    10   ar
    13     6     8    1
    14     6    23    1
    15     6    24    1
    16     7     9    1
    17     8    25    1
    18     8    26    1
    19    10    11   ar
    20    10    14   ar
    21    11    16   ar
    22    12    13   ar
    23    13    15   ar
    24    13    19   ar
    25    14    17   ar
    26    14    28    1
    27    15    20   ar
    28    16    18   ar
    29    16    29    1
    30    17    18   ar
    31    17    30    1
    32    18    31    1
    33    19    21   ar
    34    19    32    1
    35    20    22   ar
    36    20    33    1
    37    21    22   ar
    38    21    34    1
    39    22    35    1
