@<TRIPOS>MOLECULE
IMPHY006533
 25 25 0 0 0
SMALL
GASTEIGER

@<TRIPOS>ATOM
      1 O           2.0000   -2.5000    0.0000 O.2     1  UNL1       -0.2960
      2 C           2.8660    2.0000    0.0000 C.3     1  UNL1       -0.0253
      3 C           2.8660    1.0000    0.0000 C.2     1  UNL1       -0.0668
      4 C           3.7320    0.5000    0.0000 C.3     1  UNL1       -0.0126
      5 C           2.0000    0.5000    0.0000 C.2     1  UNL1       -0.0798
      6 C           2.0000   -0.5000    0.0000 C.3     1  UNL1       -0.0065
      7 C           3.7320    2.5000    0.0000 C.3     1  UNL1       -0.0589
      8 C           2.0000    2.5000    0.0000 C.3     1  UNL1       -0.0589
      9 C           3.7320   -0.5000    0.0000 C.2     1  UNL1       -0.0735
     10 C           2.8660   -1.0000    0.0000 C.2     1  UNL1       -0.0081
     11 C           2.8660   -2.0000    0.0000 C.2     1  UNL1        0.1463
     12 H           2.8660    2.6200    0.0000 H       1  UNL1        0.0340
     13 H           4.3426    0.3923    0.0000 H       1  UNL1        0.0353
     14 H           3.9441    1.0826    0.0000 H       1  UNL1        0.0353
     15 H           1.4631    0.8100    0.0000 H       1  UNL1        0.0575
     16 H           1.3894   -0.3923    0.0000 H       1  UNL1        0.0356
     17 H           1.7880   -1.0826    0.0000 H       1  UNL1        0.0356
     18 H           4.0420    1.9631    0.0000 H       1  UNL1        0.0235
     19 H           4.2690    2.8100    0.0000 H       1  UNL1        0.0235
     20 H           3.4220    3.0369    0.0000 H       1  UNL1        0.0235
     21 H           2.3100    3.0369    0.0000 H       1  UNL1        0.0235
     22 H           1.4631    2.8100    0.0000 H       1  UNL1        0.0235
     23 H           1.6900    1.9631    0.0000 H       1  UNL1        0.0235
     24 H           4.2690   -0.8100    0.0000 H       1  UNL1        0.0579
     25 H           3.4030   -2.3100    0.0000 H       1  UNL1        0.1078
@<TRIPOS>BOND
     1     1    11    2
     2     2     3    1
     3     2     7    1
     4     2     8    1
     5     2    12    1
     6     3     4    1
     7     3     5    2
     8     4     9    1
     9     4    13    1
    10     4    14    1
    11     5     6    1
    12     5    15    1
    13     6    10    1
    14     6    16    1
    15     6    17    1
    16     7    18    1
    17     7    19    1
    18     7    20    1
    19     8    21    1
    20     8    22    1
    21     8    23    1
    22     9    10    2
    23     9    24    1
    24    10    11    1
    25    11    25    1
