@<TRIPOS>MOLECULE
IMPHY006002
 19 19 0 0 0
SMALL
GASTEIGER

@<TRIPOS>ATOM
      1 O           2.0000   -2.5000    0.0000 O.3     1  UNL1       -0.3904
      2 O           3.7320    2.5000    0.0000 O.3     1  UNL1       -0.4771
      3 O           2.0000    2.5000    0.0000 O.2     1  UNL1       -0.2451
      4 C           2.8660   -1.0000    0.0000 C.ar    1  UNL1       -0.0221
      5 C           2.8660    1.0000    0.0000 C.ar    1  UNL1        0.0589
      6 C           3.7320   -0.5000    0.0000 C.ar    1  UNL1       -0.0556
      7 C           2.0000   -0.5000    0.0000 C.ar    1  UNL1       -0.0556
      8 C           3.7320    0.5000    0.0000 C.ar    1  UNL1       -0.0474
      9 C           2.0000    0.5000    0.0000 C.ar    1  UNL1       -0.0474
     10 C           2.8660   -2.0000    0.0000 C.3     1  UNL1        0.0692
     11 C           2.8660    2.0000    0.0000 C.2     1  UNL1        0.3368
     12 H           4.2690   -0.8100    0.0000 H       1  UNL1        0.0621
     13 H           1.4631   -0.8100    0.0000 H       1  UNL1        0.0621
     14 H           4.2690    0.8100    0.0000 H       1  UNL1        0.0626
     15 H           1.4631    0.8100    0.0000 H       1  UNL1        0.0626
     16 H           3.0781   -2.5826    0.0000 H       1  UNL1        0.0607
     17 H           3.4766   -1.8923    0.0000 H       1  UNL1        0.0607
     18 H           2.0000   -3.1200    0.0000 H       1  UNL1        0.2098
     19 H           3.7320    3.1200    0.0000 H       1  UNL1        0.2954
@<TRIPOS>BOND
     1     1    10    1
     2     1    18    1
     3     2    11    1
     4     2    19    1
     5     3    11    2
     6     4     6   ar
     7     4     7   ar
     8     4    10    1
     9     5     8   ar
    10     5     9   ar
    11     5    11    1
    12     6     8   ar
    13     6    12    1
    14     7     9   ar
    15     7    13    1
    16     8    14    1
    17     9    15    1
    18    10    16    1
    19    10    17    1
