@<TRIPOS>MOLECULE
IMPHY007051
 16 15 0 0 0
SMALL
GASTEIGER

@<TRIPOS>ATOM
      1 S           6.3301   -0.2500    0.0000 S.2     1  UNL1        0.0203
      2 N           4.5981    0.7500    0.0000 N.2     1  UNL1       -0.2315
      3 C           3.7320    0.2500    0.0000 C.3     1  UNL1        0.0576
      4 C           2.8660    0.7500    0.0000 C.3     1  UNL1       -0.0329
      5 C           3.7320   -0.7500    0.0000 C.3     1  UNL1       -0.0419
      6 C           2.0000    0.2500    0.0000 C.3     1  UNL1       -0.0633
      7 C           5.4641    0.2500    0.0000 C.1     1  UNL1        0.0361
      8 H           3.7320    0.8700    0.0000 H       1  UNL1        0.0549
      9 H           3.2646    1.2250    0.0000 H       1  UNL1        0.0283
     10 H           2.4675    1.2250    0.0000 H       1  UNL1        0.0283
     11 H           3.1120   -0.7500    0.0000 H       1  UNL1        0.0250
     12 H           3.7320   -1.3700    0.0000 H       1  UNL1        0.0250
     13 H           4.3520   -0.7500    0.0000 H       1  UNL1        0.0250
     14 H           1.6900    0.7869    0.0000 H       1  UNL1        0.0230
     15 H           1.4631   -0.0600    0.0000 H       1  UNL1        0.0230
     16 H           2.3100   -0.2869    0.0000 H       1  UNL1        0.0230
@<TRIPOS>BOND
     1     1     7    2
     2     2     3    1
     3     2     7    2
     4     3     4    1
     5     3     5    1
     6     3     8    1
     7     4     6    1
     8     4     9    1
     9     4    10    1
    10     5    11    1
    11     5    12    1
    12     5    13    1
    13     6    14    1
    14     6    15    1
    15     6    16    1
