@<TRIPOS>MOLECULE
IMPHY001243
 52 55 0 0 0
SMALL
GASTEIGER

@<TRIPOS>ATOM
      1 O           4.6397   -1.2955    0.0000 O.3     1  UNL1       -0.4602
      2 O           6.0518   -2.3731    0.0000 O.2     1  UNL1       -0.2505
      3 O          10.2527   -0.4798    0.0000 O.3     1  UNL1       -0.4795
      4 O           8.8233    0.4984    0.0000 O.2     1  UNL1       -0.2492
      5 N           7.6913   -1.2568    0.0000 N.3     1  UNL1       -0.2892
      6 C           5.4047    0.1232    0.0000 C.3     1  UNL1        0.0111
      7 C           3.6027    0.1232    0.0000 C.3     1  UNL1        0.0237
      8 C           4.5037   -0.3107    0.0000 C.3     1  UNL1        0.1136
      9 C           3.3802    1.0981    0.0000 C.3     1  UNL1       -0.0100
     10 C           6.0898   -0.5971    0.0000 C.3     1  UNL1        0.0753
     11 C           5.6272    1.0981    0.0000 C.3     1  UNL1       -0.0423
     12 C           2.3899    1.1846    0.0000 C.3     1  UNL1       -0.0422
     13 C           2.7480   -0.3845    0.0000 C.2     1  UNL1       -0.0694
     14 C           4.0037    1.8799    0.0000 C.2     1  UNL1       -0.0728
     15 C           5.0037    1.8799    0.0000 C.3     1  UNL1       -0.0313
     16 C           2.0000    0.2702    0.0000 C.3     1  UNL1       -0.0310
     17 C           7.0810   -0.4646    0.0000 C.3     1  UNL1        0.0130
     18 C           5.6180   -1.4721    0.0000 C.2     1  UNL1        0.3121
     19 C           8.6909   -1.2286    0.0000 C.3     1  UNL1        0.1082
     20 C           7.4092   -2.2161    0.0000 C.3     1  UNL1       -0.0002
     21 C           9.0266   -2.1705    0.0000 C.3     1  UNL1       -0.0258
     22 C           8.2345   -2.7809    0.0000 C.3     1  UNL1       -0.0382
     23 C           2.6567   -1.3803    0.0000 C.2     1  UNL1       -0.0990
     24 C           3.5698    2.7809    0.0000 C.2     1  UNL1       -0.0992
     25 C           9.2557   -0.4033    0.0000 C.2     1  UNL1        0.3221
     26 H           6.2243    0.3482    0.0000 H       1  UNL1        0.0345
     27 H           3.6398   -0.7260    0.0000 H       1  UNL1        0.0387
     28 H           3.8167   -0.8112    0.0000 H       1  UNL1        0.0743
     29 H           3.0451    1.8792    0.0000 H       1  UNL1        0.0353
     30 H           6.2958   -0.0124    0.0000 H       1  UNL1        0.0430
     31 H           6.1858    0.8291    0.0000 H       1  UNL1        0.0272
     32 H           6.0138    1.5828    0.0000 H       1  UNL1        0.0272
     33 H           2.5085    1.7932    0.0000 H       1  UNL1        0.0274
     34 H           1.7972    1.3665    0.0000 H       1  UNL1        0.0274
     35 H           5.5623    2.1489    0.0000 H       1  UNL1        0.0310
     36 H           4.8657    2.4844    0.0000 H       1  UNL1        0.0310
     37 H           1.4584    0.5720    0.0000 H       1  UNL1        0.0310
     38 H           1.6430   -0.2367    0.0000 H       1  UNL1        0.0310
     39 H           7.6303   -0.1772    0.0000 H       1  UNL1        0.0435
     40 H           6.8933    0.1263    0.0000 H       1  UNL1        0.0435
     41 H           8.3940   -0.6843    0.0000 H       1  UNL1        0.0578
     42 H           6.8359   -1.9800    0.0000 H       1  UNL1        0.0427
     43 H           7.1145   -2.7616    0.0000 H       1  UNL1        0.0427
     44 H           9.3516   -2.6985    0.0000 H       1  UNL1        0.0286
     45 H           9.5857   -1.9025    0.0000 H       1  UNL1        0.0286
     46 H           7.8328   -3.2532    0.0000 H       1  UNL1        0.0278
     47 H           8.6622   -3.2298    0.0000 H       1  UNL1        0.0278
     48 H           2.0937   -1.6400    0.0000 H       1  UNL1        0.0535
     49 H           3.1630   -1.7381    0.0000 H       1  UNL1        0.0535
     50 H           3.9191    3.2932    0.0000 H       1  UNL1        0.0534
     51 H           2.9516    2.8272    0.0000 H       1  UNL1        0.0534
     52 H          10.5208   -1.0388    0.0000 H       1  UNL1        0.2951
@<TRIPOS>BOND
     1     1     8    1
     2     1    18    1
     3     2    18    2
     4     3    25    1
     5     3    52    1
     6     4    25    2
     7     5    17    1
     8     5    19    1
     9     5    20    1
    10     6     8    1
    11     6    10    1
    12     6    11    1
    13     6    26    1
    14     7     8    1
    15     7     9    1
    16     7    13    1
    17     7    27    1
    18     8    28    1
    19     9    12    1
    20     9    14    1
    21     9    29    1
    22    10    17    1
    23    10    18    1
    24    10    30    1
    25    11    15    1
    26    11    31    1
    27    11    32    1
    28    12    16    1
    29    12    33    1
    30    12    34    1
    31    13    16    1
    32    13    23    2
    33    14    15    1
    34    14    24    2
    35    15    35    1
    36    15    36    1
    37    16    37    1
    38    16    38    1
    39    17    39    1
    40    17    40    1
    41    19    21    1
    42    19    25    1
    43    19    41    1
    44    20    22    1
    45    20    42    1
    46    20    43    1
    47    21    22    1
    48    21    44    1
    49    21    45    1
    50    22    46    1
    51    22    47    1
    52    23    48    1
    53    23    49    1
    54    24    50    1
    55    24    51    1
