@<TRIPOS>MOLECULE
IMPHY010133
 53 55 0 0 0
SMALL
GASTEIGER

@<TRIPOS>ATOM
      1 O           2.3038   -2.3656    0.0000 O.3     1  UNL1       -0.4802
      2 O           3.8137   -3.2142    0.0000 O.2     1  UNL1       -0.2504
      3 O           9.0736    2.5942    0.0000 O.3     1  UNL1       -0.3848
      4 C           4.6876    0.0524    0.0000 C.3     1  UNL1       -0.0212
      5 C           4.6876   -0.9476    0.0000 C.3     1  UNL1       -0.0161
      6 C           5.5536    0.5524    0.0000 C.3     1  UNL1       -0.0102
      7 C           3.7937   -1.4822    0.0000 C.3     1  UNL1        0.0684
      8 C           3.7937    0.5871    0.0000 C.3     1  UNL1       -0.0467
      9 C           2.8876   -0.9684    0.0000 C.3     1  UNL1       -0.0372
     10 C           5.5536   -1.4476    0.0000 C.3     1  UNL1       -0.0298
     11 C           2.8876    0.0732    0.0000 C.3     1  UNL1       -0.0515
     12 C           6.4196    0.0524    0.0000 C.2     1  UNL1       -0.0476
     13 C           4.6876    1.0524    0.0000 C.3     1  UNL1       -0.0587
     14 C           5.5376    1.5939    0.0000 C.3     1  UNL1       -0.0419
     15 C           6.4196   -0.9476    0.0000 C.2     1  UNL1       -0.0802
     16 C           4.3036   -2.3424    0.0000 C.3     1  UNL1       -0.0491
     17 C           6.4356    2.1217    0.0000 C.3     1  UNL1       -0.0282
     18 C           3.3037   -2.3540    0.0000 C.2     1  UNL1        0.3110
     19 C           7.3296    0.5593    0.0000 C.2     1  UNL1       -0.0567
     20 C           7.3377    1.6009    0.0000 C.2     1  UNL1       -0.0387
     21 C           8.2056    2.0975    0.0000 C.3     1  UNL1        0.0817
     22 C           7.7090    2.9655    0.0000 C.3     1  UNL1       -0.0324
     23 C           8.7023    1.2296    0.0000 C.3     1  UNL1       -0.0324
     24 H           4.6941   -1.7976    0.0000 H       1  UNL1        0.0320
     25 H           6.2864    0.9831    0.0000 H       1  UNL1        0.0354
     26 H           4.1982    1.0569    0.0000 H       1  UNL1        0.0271
     27 H           3.4000    1.0661    0.0000 H       1  UNL1        0.0271
     28 H           2.2767   -0.8623    0.0000 H       1  UNL1        0.0276
     29 H           2.6785   -1.5521    0.0000 H       1  UNL1        0.0276
     30 H           5.1551   -1.9225    0.0000 H       1  UNL1        0.0311
     31 H           5.9521   -1.9225    0.0000 H       1  UNL1        0.0311
     32 H           2.6785    0.6569    0.0000 H       1  UNL1        0.0266
     33 H           2.2767   -0.0329    0.0000 H       1  UNL1        0.0266
     34 H           5.3076    1.0524    0.0000 H       1  UNL1        0.0235
     35 H           4.6876    1.6724    0.0000 H       1  UNL1        0.0235
     36 H           4.0676    1.0524    0.0000 H       1  UNL1        0.0235
     37 H           5.3195    2.1743    0.0000 H       1  UNL1        0.0274
     38 H           4.9284    1.4784    0.0000 H       1  UNL1        0.0274
     39 H           6.9566   -1.2576    0.0000 H       1  UNL1        0.0575
     40 H           3.7703   -2.6586    0.0000 H       1  UNL1        0.0240
     41 H           4.6198   -2.8757    0.0000 H       1  UNL1        0.0240
     42 H           4.8370   -2.0262    0.0000 H       1  UNL1        0.0240
     43 H           6.8329    2.5976    0.0000 H       1  UNL1        0.0311
     44 H           6.0346    2.5946    0.0000 H       1  UNL1        0.0311
     45 H           7.8630    0.2431    0.0000 H       1  UNL1        0.0621
     46 H           2.0000   -2.9060    0.0000 H       1  UNL1        0.2951
     47 H           8.1642    0.9216    0.0000 H       1  UNL1        0.0260
     48 H           9.0102    0.6914    0.0000 H       1  UNL1        0.0260
     49 H           9.2404    1.5375    0.0000 H       1  UNL1        0.0260
     50 H           8.2471    3.2734    0.0000 H       1  UNL1        0.0260
     51 H           7.4010    3.5036    0.0000 H       1  UNL1        0.0260
     52 H           7.1708    2.6575    0.0000 H       1  UNL1        0.0260
     53 H           9.0760    3.2142    0.0000 H       1  UNL1        0.2106
@<TRIPOS>BOND
     1     1    18    1
     2     1    46    1
     3     2    18    2
     4     3    21    1
     5     3    53    1
     6     4     5    1
     7     4     6    1
     8     4     8    1
     9     4    13    1
    10     5     7    1
    11     5    10    1
    12     5    24    1
    13     6    12    1
    14     6    14    1
    15     6    25    1
    16     7     9    1
    17     7    16    1
    18     7    18    1
    19     8    11    1
    20     8    26    1
    21     8    27    1
    22     9    11    1
    23     9    28    1
    24     9    29    1
    25    10    15    1
    26    10    30    1
    27    10    31    1
    28    11    32    1
    29    11    33    1
    30    12    15    2
    31    12    19    1
    32    13    34    1
    33    13    35    1
    34    13    36    1
    35    14    17    1
    36    14    37    1
    37    14    38    1
    38    15    39    1
    39    16    40    1
    40    16    41    1
    41    16    42    1
    42    17    20    1
    43    17    43    1
    44    17    44    1
    45    19    20    2
    46    19    45    1
    47    20    21    1
    48    21    22    1
    49    21    23    1
    50    22    50    1
    51    22    51    1
    52    22    52    1
    53    23    47    1
    54    23    48    1
    55    23    49    1
