@<TRIPOS>MOLECULE
IMPHY005038
 76 82 0 0 0
SMALL
GASTEIGER

@<TRIPOS>ATOM
      1 O           5.6993   -0.0728    0.0000 O.3     1  UNL1       -0.3515
      2 O           8.3939   -0.6144    0.0000 O.3     1  UNL1       -0.4539
      3 O           4.8614   -0.6006    0.0000 O.3     1  UNL1       -0.4572
      4 O           7.4879   -2.1352    0.0000 O.2     1  UNL1       -0.2478
      5 O           2.1359    4.0784    0.0000 O.2     1  UNL1       -0.2921
      6 O          10.3147    2.1520    0.0000 O.2     1  UNL1       -0.4706
      7 O           3.1295   -0.6206    0.0000 O.2     1  UNL1       -0.2450
      8 C           6.6098    0.4340    0.0000 C.3     1  UNL1        0.1250
      9 C           5.7438    0.9340    0.0000 C.3     1  UNL1        0.0412
     10 C           5.7438    1.9340    0.0000 C.3     1  UNL1       -0.0204
     11 C           7.4758    0.9340    0.0000 C.3     1  UNL1        0.0419
     12 C           6.5938   -0.6075    0.0000 C.3     1  UNL1        0.1858
     13 C           4.8498    2.4687    0.0000 C.3     1  UNL1       -0.0063
     14 C           4.8498    0.3994    0.0000 C.3     1  UNL1        0.1121
     15 C           6.6098    2.4340    0.0000 C.3     1  UNL1       -0.0480
     16 C           7.4758    1.9340    0.0000 C.3     1  UNL1       -0.0409
     17 C           3.9438    1.9549    0.0000 C.3     1  UNL1       -0.0164
     18 C           3.9438    0.9132    0.0000 C.3     1  UNL1       -0.0105
     19 C           8.3858    0.4272    0.0000 C.3     1  UNL1        0.1391
     20 C           6.3939   -0.1917    0.0000 C.3     1  UNL1       -0.0531
     21 C           8.3419    1.4340    0.0000 C.3     1  UNL1       -0.0531
     22 C           3.0000    2.4901    0.0000 C.3     1  UNL1        0.0311
     23 C           7.4918   -1.1352    0.0000 C.2     1  UNL1        0.3398
     24 C           5.7197    2.9620    0.0000 C.3     1  UNL1       -0.0555
     25 C           4.8749    3.5534    0.0000 C.2     1  UNL1       -0.0742
     26 C           9.2460    0.9372    0.0000 C.ar    1  UNL1        0.0310
     27 C           3.0000    3.5751    0.0000 C.2     1  UNL1        0.1617
     28 C           3.9438    4.1103    0.0000 C.2     1  UNL1       -0.0221
     29 C           2.0000    2.4862    0.0000 C.3     1  UNL1       -0.0525
     30 C           2.5033    1.6222    0.0000 C.3     1  UNL1       -0.0525
     31 C           4.0012   -1.1105    0.0000 C.2     1  UNL1        0.3395
     32 C          10.1642    0.5410    0.0000 C.ar    1  UNL1       -0.0172
     33 C           9.3390    1.9328    0.0000 C.ar    1  UNL1        0.0984
     34 C          10.8247    1.2919    0.0000 C.ar    1  UNL1        0.0921
     35 C           4.0128   -2.1105    0.0000 C.ar    1  UNL1        0.0590
     36 C           3.1526   -2.6204    0.0000 C.ar    1  UNL1       -0.0478
     37 C           4.8845   -2.6004    0.0000 C.ar    1  UNL1       -0.0478
     38 C           3.1642   -3.6204    0.0000 C.ar    1  UNL1       -0.0610
     39 C           4.8961   -3.6004    0.0000 C.ar    1  UNL1       -0.0610
     40 C           4.0359   -4.1103    0.0000 C.ar    1  UNL1       -0.0617
     41 H           6.4799    1.5090    0.0000 H       1  UNL1        0.0316
     42 H           6.1604   -1.3387    0.0000 H       1  UNL1        0.0743
     43 H           5.3909    0.0967    0.0000 H       1  UNL1        0.0740
     44 H           7.0083    2.9090    0.0000 H       1  UNL1        0.0269
     45 H           6.2113    2.9090    0.0000 H       1  UNL1        0.0269
     46 H           8.0864    1.8264    0.0000 H       1  UNL1        0.0273
     47 H           7.6879    2.5166    0.0000 H       1  UNL1        0.0273
     48 H           3.2093    1.5270    0.0000 H       1  UNL1        0.0320
     49 H           3.3329    1.0193    0.0000 H       1  UNL1        0.0304
     50 H           3.7347    0.3295    0.0000 H       1  UNL1        0.0304
     51 H           8.9257    0.1224    0.0000 H       1  UNL1        0.0793
     52 H           5.8570   -0.5018    0.0000 H       1  UNL1        0.0237
     53 H           6.7040   -0.7286    0.0000 H       1  UNL1        0.0237
     54 H           6.9308    0.1183    0.0000 H       1  UNL1        0.0237
     55 H           8.6519    0.8971    0.0000 H       1  UNL1        0.0237
     56 H           8.8788    1.7440    0.0000 H       1  UNL1        0.0237
     57 H           8.0319    1.9710    0.0000 H       1  UNL1        0.0237
     58 H           6.0256    2.4227    0.0000 H       1  UNL1        0.0238
     59 H           6.2590    3.2679    0.0000 H       1  UNL1        0.0238
     60 H           5.4138    3.5013    0.0000 H       1  UNL1        0.0238
     61 H           5.4178    3.8530    0.0000 H       1  UNL1        0.0579
     62 H           3.9510    4.7303    0.0000 H       1  UNL1        0.0649
     63 H           1.9976    3.1062    0.0000 H       1  UNL1        0.0239
     64 H           1.3800    2.4838    0.0000 H       1  UNL1        0.0239
     65 H           1.9652    1.9301    0.0000 H       1  UNL1        0.0239
     66 H           2.1954    1.0840    0.0000 H       1  UNL1        0.0239
     67 H           3.0415    1.3142    0.0000 H       1  UNL1        0.0239
     68 H           2.0024    1.8662    0.0000 H       1  UNL1        0.0239
     69 H          10.3001   -0.0639    0.0000 H       1  UNL1        0.0653
     70 H           8.8735    2.3424    0.0000 H       1  UNL1        0.1033
     71 H          11.4420    1.2342    0.0000 H       1  UNL1        0.1029
     72 H           2.6121   -2.3167    0.0000 H       1  UNL1        0.0626
     73 H           5.4178   -2.2842    0.0000 H       1  UNL1        0.0626
     74 H           2.6308   -3.9366    0.0000 H       1  UNL1        0.0618
     75 H           5.4366   -3.9041    0.0000 H       1  UNL1        0.0618
     76 H           4.0431   -4.7303    0.0000 H       1  UNL1        0.0618
@<TRIPOS>BOND
     1     8     1    1
     2     1    12    1
     3     2    19    1
     4     2    23    1
     5    14     3    1
     6     3    31    1
     7     4    23    2
     8     5    27    2
     9     6    33   ar
    10     6    34   ar
    11     7    31    2
    12     8     9    1
    13     8    11    1
    14     8    12    1
    15     9    10    1
    16     9    14    1
    17     9    20    1
    18    10    13    1
    19    10    15    1
    20    10    41    1
    21    11    16    1
    22    11    19    1
    23    11    21    1
    24    12    23    1
    25    12    42    1
    26    13    17    1
    27    13    24    1
    28    13    25    1
    29    14    18    1
    30    14    43    1
    31    15    16    1
    32    15    44    1
    33    15    45    1
    34    16    46    1
    35    16    47    1
    36    17    18    1
    37    17    22    1
    38    17    48    1
    39    18    49    1
    40    18    50    1
    41    19    26    1
    42    19    51    1
    43    20    52    1
    44    20    53    1
    45    20    54    1
    46    21    55    1
    47    21    56    1
    48    21    57    1
    49    22    27    1
    50    22    29    1
    51    22    30    1
    52    24    58    1
    53    24    59    1
    54    24    60    1
    55    25    28    2
    56    25    61    1
    57    26    32   ar
    58    26    33   ar
    59    27    28    1
    60    28    62    1
    61    29    63    1
    62    29    64    1
    63    29    68    1
    64    30    65    1
    65    30    66    1
    66    30    67    1
    67    31    35    1
    68    32    34   ar
    69    32    69    1
    70    33    70    1
    71    34    71    1
    72    35    36   ar
    73    35    37   ar
    74    36    38   ar
    75    36    72    1
    76    37    39   ar
    77    37    73    1
    78    38    40   ar
    79    38    74    1
    80    39    40   ar
    81    39    75    1
    82    40    76    1
