@<TRIPOS>MOLECULE
IMPHY002418
 21 23 0 0 0
SMALL
GASTEIGER

@<TRIPOS>ATOM
      1 C           2.5887    2.4997    0.0000 C.ar    1  UNL1        0.1515
      2 C           2.5887    1.5003    0.0000 C.ar    1  UNL1        0.0769
      3 O           3.4591    3.0028    0.0000 O.2     1  UNL1       -0.4532
      4 C           1.7273    3.0028    0.0000 C.ar    1  UNL1        0.0778
      5 C           3.4546    0.9994    0.0000 C.ar    1  UNL1        0.2017
      6 C           1.7251    1.0061    0.0000 C.ar    1  UNL1        0.0515
      7 C           4.3272    2.5042    0.0000 C.ar    1  UNL1        0.1484
      8 C           0.8659    2.5042    0.0000 C.ar    1  UNL1        0.1804
      9 C           4.3272    1.5025    0.0000 C.ar    1  UNL1        0.0796
     10 O           3.4546    0.0000    0.0000 O.2     1  UNL1       -0.2864
     11 C           0.8659    1.5047    0.0000 C.ar    1  UNL1        0.2296
     12 C           5.1931    3.0072    0.0000 C.ar    1  UNL1        0.0349
     13 O           0.0000    3.0050    0.0000 O.3     1  UNL1       -0.4681
     14 O           0.0000    1.0039    0.0000 O.3     1  UNL1       -0.2833
     15 C           5.1909    4.0067    0.0000 C.ar    1  UNL1        0.0063
     16 C           6.0590    2.5064    0.0000 C.ar    1  UNL1        0.0063
     17 C           0.0000    4.0044    0.0000 C.3     1  UNL1        0.2526
     18 C           6.0567    4.5075    0.0000 C.ar    1  UNL1        0.0421
     19 C           6.9248    3.0072    0.0000 C.ar    1  UNL1        0.0421
     20 C           6.9226    4.0089    0.0000 C.ar    1  UNL1        0.1957
     21 O           7.7907    4.5097    0.0000 O.3     1  UNL1       -0.2866
@<TRIPOS>BOND
     1     1     2   ar
     2     1     3   ar
     3     1     4   ar
     4     2     5   ar
     5     2     6   ar
     6     3     7   ar
     7     4     8   ar
     8     5     9   ar
     9     5    10    2
    10     6    11   ar
    11     7     9   ar
    12     7    12    1
    13     8    11   ar
    14     8    13    1
    15    11    14    1
    16    12    15   ar
    17    12    16   ar
    18    13    17    1
    19    15    18   ar
    20    16    19   ar
    21    18    20   ar
    22    19    20   ar
    23    20    21    1
