@<TRIPOS>MOLECULE
IMPHY003035
 55 57 0 0 0
SMALL
GASTEIGER

@<TRIPOS>ATOM
      1 O          12.4202   -1.9747    0.0000 O.3     1  UNL1       -0.4815
      2 O          10.6603    1.0600    0.0000 O.3     1  UNL1       -0.5053
      3 O           8.9282    1.0600    0.0000 O.2     1  UNL1       -0.2872
      4 O           3.7320   -1.9400    0.0000 O.3     1  UNL1       -0.5065
      5 C          13.3263   -1.4608    0.0000 C.3     1  UNL1        0.1235
      6 C          13.3263   -0.4192    0.0000 C.2     1  UNL1       -0.0408
      7 C          11.5263   -0.4400    0.0000 C.ar    1  UNL1        0.0586
      8 C          11.5263   -1.4400    0.0000 C.ar    1  UNL1        0.1324
      9 C          14.3263   -1.4647    0.0000 C.3     1  UNL1       -0.0215
     10 C          13.8229   -2.3288    0.0000 C.3     1  UNL1       -0.0215
     11 C          12.4202    0.0947    0.0000 C.2     1  UNL1       -0.0478
     12 C          10.6603    0.0600    0.0000 C.ar    1  UNL1        0.1382
     13 C          10.6603   -1.9400    0.0000 C.ar    1  UNL1       -0.0184
     14 C           9.7942   -0.4400    0.0000 C.ar    1  UNL1        0.0638
     15 C           9.7942   -1.4400    0.0000 C.ar    1  UNL1       -0.0439
     16 C           8.9282    0.0600    0.0000 C.2     1  UNL1        0.1896
     17 C           4.5981   -0.4400    0.0000 C.ar    1  UNL1       -0.0017
     18 C           3.7320    0.0600    0.0000 C.3     1  UNL1       -0.0058
     19 C           6.3301   -0.4400    0.0000 C.ar    1  UNL1       -0.0244
     20 C           5.4641    0.0600    0.0000 C.ar    1  UNL1       -0.0477
     21 C           8.0622   -0.4400    0.0000 C.2     1  UNL1       -0.0137
     22 C           7.1962    0.0600    0.0000 C.2     1  UNL1       -0.0509
     23 C           4.5981   -1.4400    0.0000 C.ar    1  UNL1        0.1203
     24 C           6.3301   -1.4400    0.0000 C.ar    1  UNL1       -0.0511
     25 C           3.7320    1.0600    0.0000 C.2     1  UNL1       -0.0809
     26 C           5.4641   -1.9400    0.0000 C.ar    1  UNL1       -0.0193
     27 C           2.8660    1.5600    0.0000 C.2     1  UNL1       -0.0793
     28 C           2.8660    2.5600    0.0000 C.3     1  UNL1       -0.0440
     29 C           2.0000    1.0600    0.0000 C.3     1  UNL1       -0.0440
     30 H          13.8620   -0.1071    0.0000 H       1  UNL1        0.0611
     31 H          13.2848   -2.6367    0.0000 H       1  UNL1        0.0271
     32 H          14.3239   -2.0847    0.0000 H       1  UNL1        0.0271
     33 H          14.9463   -1.4671    0.0000 H       1  UNL1        0.0271
     34 H          14.3287   -0.8447    0.0000 H       1  UNL1        0.0271
     35 H          14.1309   -2.8669    0.0000 H       1  UNL1        0.0271
     36 H          14.3611   -2.0208    0.0000 H       1  UNL1        0.0271
     37 H          12.4131    0.7146    0.0000 H       1  UNL1        0.0624
     38 H          10.6603   -2.5600    0.0000 H       1  UNL1        0.0654
     39 H           9.2573   -1.7500    0.0000 H       1  UNL1        0.0627
     40 H           3.1215    0.1677    0.0000 H       1  UNL1        0.0357
     41 H           3.5200   -0.5226    0.0000 H       1  UNL1        0.0357
     42 H           5.4641    0.6800    0.0000 H       1  UNL1        0.0627
     43 H           8.0622   -1.0600    0.0000 H       1  UNL1        0.0656
     44 H          11.1972    1.3700    0.0000 H       1  UNL1        0.2922
     45 H           7.1962    0.6800    0.0000 H       1  UNL1        0.0625
     46 H           6.8671   -1.7500    0.0000 H       1  UNL1        0.0625
     47 H           4.2690    1.3700    0.0000 H       1  UNL1        0.0575
     48 H           5.4641   -2.5600    0.0000 H       1  UNL1        0.0654
     49 H           1.6900    1.5969    0.0000 H       1  UNL1        0.0274
     50 H           3.4860    2.5600    0.0000 H       1  UNL1        0.0274
     51 H           2.8660    3.1800    0.0000 H       1  UNL1        0.0274
     52 H           2.2460    2.5600    0.0000 H       1  UNL1        0.0274
     53 H           1.4631    0.7500    0.0000 H       1  UNL1        0.0274
     54 H           2.3100    0.5231    0.0000 H       1  UNL1        0.0274
     55 H           3.7320   -2.5600    0.0000 H       1  UNL1        0.2921
@<TRIPOS>BOND
     1     1     5    1
     2     1     8    1
     3     2    12    1
     4     2    44    1
     5     3    16    2
     6     4    23    1
     7     4    55    1
     8     5     6    1
     9     5     9    1
    10     5    10    1
    11     6    11    2
    12     6    30    1
    13     7     8   ar
    14     7    11    1
    15     7    12   ar
    16     8    13   ar
    17     9    32    1
    18     9    33    1
    19     9    34    1
    20    10    31    1
    21    10    35    1
    22    10    36    1
    23    11    37    1
    24    12    14   ar
    25    13    15   ar
    26    13    38    1
    27    14    15   ar
    28    14    16    1
    29    15    39    1
    30    16    21    1
    31    17    18    1
    32    17    20   ar
    33    17    23   ar
    34    18    25    1
    35    18    40    1
    36    18    41    1
    37    19    20   ar
    38    19    22    1
    39    19    24   ar
    40    20    42    1
    41    21    22    2
    42    21    43    1
    43    22    45    1
    44    23    26   ar
    45    24    26   ar
    46    24    46    1
    47    25    27    2
    48    25    47    1
    49    26    48    1
    50    27    28    1
    51    27    29    1
    52    28    50    1
    53    28    51    1
    54    28    52    1
    55    29    49    1
    56    29    53    1
    57    29    54    1
