@<TRIPOS>MOLECULE
IMPHY005072
 29 29 0 0 0
SMALL
GASTEIGER

@<TRIPOS>ATOM
      1 O           4.5981    3.7500    0.0000 O.3     1  UNL1       -0.4606
      2 O           3.7320    5.2500    0.0000 O.2     1  UNL1       -0.2512
      3 C           2.8660   -3.2500    0.0000 C.ar    1  UNL1        0.0259
      4 C           2.0000   -3.7500    0.0000 C.ar    1  UNL1       -0.0463
      5 C           3.7320   -3.7500    0.0000 C.ar    1  UNL1       -0.0463
      6 C           3.7320    3.2500    0.0000 C.3     1  UNL1        0.1115
      7 C           2.0000   -4.7500    0.0000 C.ar    1  UNL1       -0.0606
      8 C           3.7320   -4.7500    0.0000 C.ar    1  UNL1       -0.0606
      9 C           2.8660   -5.2500    0.0000 C.ar    1  UNL1       -0.0617
     10 C           3.7320    2.2500    0.0000 C.2     1  UNL1       -0.0388
     11 C           4.5981    4.7500    0.0000 C.2     1  UNL1        0.3042
     12 C           5.4641    5.2500    0.0000 C.3     1  UNL1        0.0332
     13 C           2.8660    1.7500    0.0000 C.2     1  UNL1       -0.0114
     14 C           2.8660   -2.2500    0.0000 C.1     1  UNL1       -0.0525
     15 C           2.8660    0.7500    0.0000 C.1     1  UNL1       -0.0605
     16 C           2.8660   -1.2500    0.0000 C.1     1  UNL1       -0.0092
     17 C           2.8660   -0.2500    0.0000 C.1     1  UNL1       -0.0098
     18 H           1.4631   -3.4400    0.0000 H       1  UNL1        0.0630
     19 H           4.2690   -3.4400    0.0000 H       1  UNL1        0.0630
     20 H           3.5200    3.8326    0.0000 H       1  UNL1        0.0743
     21 H           3.1215    3.1423    0.0000 H       1  UNL1        0.0743
     22 H           1.4631   -5.0600    0.0000 H       1  UNL1        0.0618
     23 H           4.2690   -5.0600    0.0000 H       1  UNL1        0.0618
     24 H           2.8660   -5.8700    0.0000 H       1  UNL1        0.0618
     25 H           4.2690    1.9400    0.0000 H       1  UNL1        0.0612
     26 H           5.7741    4.7131    0.0000 H       1  UNL1        0.0342
     27 H           6.0010    5.5600    0.0000 H       1  UNL1        0.0342
     28 H           5.1541    5.7869    0.0000 H       1  UNL1        0.0342
     29 H           2.3291    2.0600    0.0000 H       1  UNL1        0.0710
@<TRIPOS>BOND
     1     1     6    1
     2     1    11    1
     3     2    11    2
     4     3     4   ar
     5     3     5   ar
     6     3    14    1
     7     4     7   ar
     8     4    18    1
     9     5     8   ar
    10     5    19    1
    11     6    10    1
    12     6    20    1
    13     6    21    1
    14     7     9   ar
    15     7    22    1
    16     8     9   ar
    17     8    23    1
    18     9    24    1
    19    10    13    2
    20    10    25    1
    21    11    12    1
    22    12    26    1
    23    12    27    1
    24    12    28    1
    25    13    15    1
    26    13    29    1
    27    14    16    3
    28    15    17    3
    29    16    17    1
