@<TRIPOS>MOLECULE
IMPHY010509
 53 58 0 0 0
SMALL
GASTEIGER

@<TRIPOS>ATOM
      1 O           3.8076    1.3280    0.0000 O.3     1  UNL1       -0.3897
      2 O           6.8764    2.3030    0.0000 O.3     1  UNL1       -0.4674
      3 O           8.1428    1.1213    0.0000 O.2     1  UNL1       -0.2501
      4 N           6.1798   -0.8260    0.0000 N.3     1  UNL1       -0.2896
      5 N           4.0899   -1.7815    0.0000 N.pl3   1  UNL1       -0.3272
      6 C           4.5153   -0.4722    0.0000 C.3     1  UNL1        0.0458
      7 C           6.4862    0.6155    0.0000 C.3     1  UNL1        0.1162
      8 C           5.9169   -0.0168    0.0000 C.3     1  UNL1        0.0308
      9 C           4.7782   -1.2814    0.0000 C.3     1  UNL1        0.0509
     10 C           5.6105   -1.4583    0.0000 C.3     1  UNL1        0.0310
     11 C           4.5142    0.6204    0.0000 C.3     1  UNL1        0.0844
     12 C           5.0846    0.1601    0.0000 C.3     1  UNL1       -0.0223
     13 C           6.7056   -2.4444    0.0000 C.3     1  UNL1        0.0024
     14 C           5.8734   -2.2675    0.0000 C.3     1  UNL1       -0.0278
     15 C           3.6645   -0.4722    0.0000 C.ar    1  UNL1       -0.0158
     16 C           7.0121   -1.0029    0.0000 C.3     1  UNL1        0.0210
     17 C           7.2750   -1.8121    0.0000 C.2     1  UNL1       -0.0554
     18 C           7.1685    1.3466    0.0000 C.2     1  UNL1        0.3177
     19 C           3.4016   -1.2814    0.0000 C.ar    1  UNL1        0.0336
     20 C           3.0952    0.1601    0.0000 C.ar    1  UNL1       -0.0561
     21 C           4.0983   -2.7815    0.0000 C.3     1  UNL1        0.0011
     22 C           8.2531   -2.0200    0.0000 C.2     1  UNL1       -0.0864
     23 C           2.5693   -1.4583    0.0000 C.ar    1  UNL1       -0.0404
     24 C           2.2629   -0.0168    0.0000 C.ar    1  UNL1       -0.0614
     25 C           2.0000   -0.8260    0.0000 C.ar    1  UNL1       -0.0600
     26 C           8.9223   -1.2769    0.0000 C.3     1  UNL1       -0.0465
     27 C           7.5587    3.0341    0.0000 C.3     1  UNL1        0.0817
     28 H           5.7347    0.8134    0.0000 H       1  UNL1        0.0475
     29 H           4.7788   -2.1314    0.0000 H       1  UNL1        0.0525
     30 H           5.1956   -1.9191    0.0000 H       1  UNL1        0.0481
     31 H           4.7523    1.1928    0.0000 H       1  UNL1        0.0614
     32 H           5.3169    0.7349    0.0000 H       1  UNL1        0.0291
     33 H           4.5588    0.4886    0.0000 H       1  UNL1        0.0291
     34 H           6.9683   -3.2528    0.0000 H       1  UNL1        0.0358
     35 H           5.2594   -2.3538    0.0000 H       1  UNL1        0.0287
     36 H           5.8518   -2.8871    0.0000 H       1  UNL1        0.0287
     37 H           7.6260   -0.9166    0.0000 H       1  UNL1        0.0473
     38 H           7.0337   -0.3833    0.0000 H       1  UNL1        0.0473
     39 H           3.9684    1.9268    0.0000 H       1  UNL1        0.2099
     40 H           3.2868    0.7497    0.0000 H       1  UNL1        0.0621
     41 H           3.4784   -2.7867    0.0000 H       1  UNL1        0.0428
     42 H           4.1036   -3.4015    0.0000 H       1  UNL1        0.0428
     43 H           4.7183   -2.7763    0.0000 H       1  UNL1        0.0428
     44 H           8.4447   -2.6097    0.0000 H       1  UNL1        0.0569
     45 H           2.3777   -2.0480    0.0000 H       1  UNL1        0.0636
     46 H           1.8481    0.4439    0.0000 H       1  UNL1        0.0618
     47 H           1.3936   -0.9549    0.0000 H       1  UNL1        0.0618
     48 H           9.3830   -1.6918    0.0000 H       1  UNL1        0.0272
     49 H           9.3371   -0.8162    0.0000 H       1  UNL1        0.0272
     50 H           8.4615   -0.8620    0.0000 H       1  UNL1        0.0272
     51 H           8.0120    2.6111    0.0000 H       1  UNL1        0.0661
     52 H           7.9817    3.4874    0.0000 H       1  UNL1        0.0661
     53 H           7.1054    3.4571    0.0000 H       1  UNL1        0.0661
@<TRIPOS>BOND
     1    11     1    1
     2     1    39    1
     3     2    18    1
     4     2    27    1
     5     3    18    2
     6     4     8    1
     7     4    10    1
     8     4    16    1
     9     5     9    1
    10     5    19    1
    11     5    21    1
    12     6     9    1
    13     6    11    1
    14     6    12    1
    15     6    15    1
    16     7     8    1
    17     7    11    1
    18     7    13    1
    19     7    18    1
    20     8    12    1
    21     8    28    1
    22     9    10    1
    23     9    29    1
    24    10    14    1
    25    10    30    1
    26    11    31    1
    27    12    32    1
    28    12    33    1
    29    13    14    1
    30    13    17    1
    31    13    34    1
    32    14    35    1
    33    14    36    1
    34    15    19   ar
    35    15    20   ar
    36    16    17    1
    37    16    37    1
    38    16    38    1
    39    17    22    2
    40    19    23   ar
    41    20    24   ar
    42    20    40    1
    43    21    41    1
    44    21    42    1
    45    21    43    1
    46    22    26    1
    47    22    44    1
    48    23    25   ar
    49    23    45    1
    50    24    25   ar
    51    24    46    1
    52    25    47    1
    53    26    48    1
    54    26    49    1
    55    26    50    1
    56    27    51    1
    57    27    52    1
    58    27    53    1
