@<TRIPOS>MOLECULE
IMPHY001631
 35 36 0 0 0
SMALL
GASTEIGER

@<TRIPOS>ATOM
      1 O           2.8660   -3.9050    0.0000 O.3     1  UNL1       -0.5068
      2 O           7.1962    3.5950    0.0000 O.3     1  UNL1       -0.5068
      3 C           2.8660    0.0950    0.0000 C.3     1  UNL1        0.0203
      4 C           2.8660   -0.9050    0.0000 C.ar    1  UNL1       -0.0366
      5 C           3.7320    0.5950    0.0000 C.2     1  UNL1       -0.0723
      6 C           2.0000   -1.4050    0.0000 C.ar    1  UNL1       -0.0543
      7 C           3.7320   -1.4050    0.0000 C.ar    1  UNL1       -0.0543
      8 C           2.0000    0.5950    0.0000 C.2     1  UNL1       -0.0800
      9 C           3.7320    1.5950    0.0000 C.2     1  UNL1       -0.0577
     10 C           4.5981    2.0950    0.0000 C.ar    1  UNL1       -0.0251
     11 C           2.0000   -2.4050    0.0000 C.ar    1  UNL1       -0.0199
     12 C           3.7320   -2.4050    0.0000 C.ar    1  UNL1       -0.0199
     13 C           2.8660   -2.9050    0.0000 C.ar    1  UNL1        0.1169
     14 C           5.4641    1.5950    0.0000 C.ar    1  UNL1       -0.0512
     15 C           4.5981    3.0950    0.0000 C.ar    1  UNL1       -0.0512
     16 C           6.3301    2.0950    0.0000 C.ar    1  UNL1       -0.0196
     17 C           5.4641    3.5950    0.0000 C.ar    1  UNL1       -0.0196
     18 C           2.0000    1.5950    0.0000 C.2     1  UNL1       -0.1018
     19 C           6.3301    3.0950    0.0000 C.ar    1  UNL1        0.1169
     20 H           2.8660    0.9450    0.0000 H       1  UNL1        0.0434
     21 H           4.2690    0.2850    0.0000 H       1  UNL1        0.0581
     22 H           1.4631   -1.0950    0.0000 H       1  UNL1        0.0622
     23 H           4.2690   -1.0950    0.0000 H       1  UNL1        0.0622
     24 H           1.4631    0.2850    0.0000 H       1  UNL1        0.0575
     25 H           3.1951    1.9050    0.0000 H       1  UNL1        0.0621
     26 H           1.4631   -2.7150    0.0000 H       1  UNL1        0.0654
     27 H           4.2690   -2.7150    0.0000 H       1  UNL1        0.0654
     28 H           5.4641    0.9750    0.0000 H       1  UNL1        0.0625
     29 H           4.0611    3.4050    0.0000 H       1  UNL1        0.0625
     30 H           6.8671    1.7850    0.0000 H       1  UNL1        0.0654
     31 H           5.4641    4.2150    0.0000 H       1  UNL1        0.0654
     32 H           2.5369    1.9050    0.0000 H       1  UNL1        0.0532
     33 H           1.4631    1.9050    0.0000 H       1  UNL1        0.0532
     34 H           2.3291   -4.2150    0.0000 H       1  UNL1        0.2921
     35 H           7.1962    4.2150    0.0000 H       1  UNL1        0.2921
@<TRIPOS>BOND
     1     1    13    1
     2     1    34    1
     3     2    19    1
     4     2    35    1
     5     3     4    1
     6     3     5    1
     7     3     8    1
     8     3    20    1
     9     4     6   ar
    10     4     7   ar
    11     5     9    2
    12     5    21    1
    13     6    11   ar
    14     6    22    1
    15     7    12   ar
    16     7    23    1
    17     8    18    2
    18     8    24    1
    19     9    10    1
    20     9    25    1
    21    10    14   ar
    22    10    15   ar
    23    11    13   ar
    24    11    26    1
    25    12    13   ar
    26    12    27    1
    27    14    16   ar
    28    14    28    1
    29    15    17   ar
    30    15    29    1
    31    16    19   ar
    32    16    30    1
    33    17    19   ar
    34    17    31    1
    35    18    32    1
    36    18    33    1
