@<TRIPOS>MOLECULE
IMPHY014330
 41 45 0 0 0
SMALL
GASTEIGER

@<TRIPOS>ATOM
      1 O           6.2596   -2.6176    0.0000 O.3     1  UNL1       -0.3730
      2 O           8.9116    1.9276    0.0000 O.3     1  UNL1       -0.3757
      3 O           2.6079    0.2207    0.0000 O.3     1  UNL1       -0.4526
      4 O           2.6079   -1.4558    0.0000 O.3     1  UNL1       -0.4526
      5 N           7.1256   -1.1176    0.0000 N.3     1  UNL1       -0.2697
      6 C           6.2596    0.3825    0.0000 C.3     1  UNL1        0.0312
      7 C           7.1256   -0.1175    0.0000 C.3     1  UNL1        0.0287
      8 C           6.1461   -0.2211    0.0000 C.3     1  UNL1       -0.0255
      9 C           6.5462   -0.9140    0.0000 C.3     1  UNL1        0.0029
     10 C           8.0356    0.3893    0.0000 C.3     1  UNL1       -0.0061
     11 C           5.3935   -0.1175    0.0000 C.ar    1  UNL1       -0.0253
     12 C           6.2596   -1.6176    0.0000 C.3     1  UNL1        0.1354
     13 C           6.2435    1.4240    0.0000 C.2     1  UNL1       -0.0736
     14 C           5.3935   -1.1176    0.0000 C.ar    1  UNL1        0.0034
     15 C           8.0436    1.4309    0.0000 C.3     1  UNL1        0.0779
     16 C           7.1415    1.9517    0.0000 C.2     1  UNL1       -0.0586
     17 C           4.4996    0.4171    0.0000 C.ar    1  UNL1       -0.0117
     18 C           4.4996   -1.6522    0.0000 C.ar    1  UNL1       -0.0089
     19 C           3.5935   -0.0967    0.0000 C.ar    1  UNL1        0.1665
     20 C           3.5935   -1.1384    0.0000 C.ar    1  UNL1        0.1666
     21 C           8.9154    2.9276    0.0000 C.3     1  UNL1        0.0372
     22 C           2.0000   -0.6175    0.0000 C.3     1  UNL1        0.2332
     23 H           7.8617   -0.5425    0.0000 H       1  UNL1        0.0476
     24 H           5.5942    0.0612    0.0000 H       1  UNL1        0.0290
     25 H           5.7190   -0.6705    0.0000 H       1  UNL1        0.0290
     26 H           5.9434   -1.0592    0.0000 H       1  UNL1        0.0428
     27 H           6.5147   -1.5332    0.0000 H       1  UNL1        0.0428
     28 H           8.2401   -0.1960    0.0000 H       1  UNL1        0.0309
     29 H           8.6472    0.4907    0.0000 H       1  UNL1        0.0309
     30 H           5.7226   -1.9276    0.0000 H       1  UNL1        0.0820
     31 H           5.7030    1.7277    0.0000 H       1  UNL1        0.0579
     32 H           8.0448    2.0509    0.0000 H       1  UNL1        0.0641
     33 H           7.1391    2.5717    0.0000 H       1  UNL1        0.0595
     34 H           4.5068    1.0371    0.0000 H       1  UNL1        0.0658
     35 H           4.5068   -2.2722    0.0000 H       1  UNL1        0.0659
     36 H           6.7965   -2.9276    0.0000 H       1  UNL1        0.2118
     37 H           9.5354    2.9252    0.0000 H       1  UNL1        0.0524
     38 H           8.9178    3.5475    0.0000 H       1  UNL1        0.0524
     39 H           8.2954    2.9299    0.0000 H       1  UNL1        0.0524
     40 H           1.5391   -0.2028    0.0000 H       1  UNL1        0.1166
     41 H           1.5391   -1.0323    0.0000 H       1  UNL1        0.1166
@<TRIPOS>BOND
     1    12     1    1
     2     1    36    1
     3    15     2    1
     4     2    21    1
     5     3    19    1
     6     3    22    1
     7     4    20    1
     8     4    22    1
     9     5     7    1
    10     5     9    1
    11     5    12    1
    12     6     7    1
    13     6     8    1
    14     6    11    1
    15     6    13    1
    16     7    10    1
    17     7    23    1
    18     8     9    1
    19     8    24    1
    20     8    25    1
    21     9    26    1
    22     9    27    1
    23    10    15    1
    24    10    28    1
    25    10    29    1
    26    11    14   ar
    27    11    17   ar
    28    12    14    1
    29    12    30    1
    30    13    16    2
    31    13    31    1
    32    14    18   ar
    33    15    16    1
    34    15    32    1
    35    16    33    1
    36    17    19   ar
    37    17    34    1
    38    18    20   ar
    39    18    35    1
    40    19    20   ar
    41    21    37    1
    42    21    38    1
    43    21    39    1
    44    22    40    1
    45    22    41    1
