@<TRIPOS>MOLECULE
IMPHY010258
 53 57 0 0 0
SMALL
GASTEIGER

@<TRIPOS>ATOM
      1 O           5.9816   -0.5871    0.0000 O.3     1  UNL1       -0.4808
      2 O           4.2377   -3.6632    0.0000 O.3     1  UNL1       -0.4253
      3 O           8.6497   -0.0835    0.0000 O.3     1  UNL1       -0.3875
      4 O           7.7298   -3.6286    0.0000 O.3     1  UNL1       -0.5063
      5 O           2.4676   -3.6527    0.0000 O.2     1  UNL1       -0.2504
      6 O           2.5405    1.4259    0.0000 O.3     1  UNL1       -0.5033
      7 O           8.6002    2.9473    0.0000 O.3     1  UNL1       -0.5033
      8 O           4.2840    2.4058    0.0000 O.3     1  UNL1       -0.5033
      9 O           6.8643    3.9406    0.0000 O.3     1  UNL1       -0.5033
     10 C           4.2377   -1.5939    0.0000 C.3     1  UNL1        0.0264
     11 C           7.7818   -0.5801    0.0000 C.3     1  UNL1        0.1004
     12 C           5.1317   -2.1286    0.0000 C.ar    1  UNL1        0.0450
     13 C           6.8797   -0.0593    0.0000 C.3     1  UNL1        0.1513
     14 C           5.9977   -1.6286    0.0000 C.ar    1  UNL1        0.1355
     15 C           7.7737   -1.6217    0.0000 C.3     1  UNL1        0.0092
     16 C           6.8637   -2.1286    0.0000 C.ar    1  UNL1        0.0387
     17 C           3.3317   -2.1078    0.0000 C.3     1  UNL1        0.0564
     18 C           5.1317   -3.1286    0.0000 C.ar    1  UNL1        0.1423
     19 C           6.8637   -3.1286    0.0000 C.ar    1  UNL1        0.1271
     20 C           4.2493   -0.5940    0.0000 C.ar    1  UNL1       -0.0355
     21 C           6.8758    0.9407    0.0000 C.ar    1  UNL1       -0.0012
     22 C           5.9977   -3.6286    0.0000 C.ar    1  UNL1        0.0231
     23 C           3.3317   -3.1494    0.0000 C.2     1  UNL1        0.3132
     24 C           3.3891   -0.0840    0.0000 C.ar    1  UNL1       -0.0128
     25 C           5.1210   -0.1040    0.0000 C.ar    1  UNL1       -0.0543
     26 C           7.7399    1.4440    0.0000 C.ar    1  UNL1       -0.0098
     27 C           6.0079    1.4373    0.0000 C.ar    1  UNL1       -0.0513
     28 C           3.4007    0.9159    0.0000 C.ar    1  UNL1        0.1585
     29 C           5.1326    0.8959    0.0000 C.ar    1  UNL1       -0.0163
     30 C           7.7361    2.4440    0.0000 C.ar    1  UNL1        0.1586
     31 C           6.0040    2.4373    0.0000 C.ar    1  UNL1       -0.0162
     32 C           4.2724    1.4059    0.0000 C.ar    1  UNL1        0.1582
     33 C           6.8681    2.9407    0.0000 C.ar    1  UNL1        0.1582
     34 H           3.7038   -1.2788    0.0000 H       1  UNL1        0.0405
     35 H           8.3169   -0.8932    0.0000 H       1  UNL1        0.0637
     36 H           6.3410    0.2476    0.0000 H       1  UNL1        0.0811
     37 H           7.9783   -2.2070    0.0000 H       1  UNL1        0.0342
     38 H           8.3854   -1.5204    0.0000 H       1  UNL1        0.0342
     39 H           3.1226   -1.5241    0.0000 H       1  UNL1        0.0387
     40 H           2.7208   -2.2139    0.0000 H       1  UNL1        0.0387
     41 H           5.9977   -4.2486    0.0000 H       1  UNL1        0.0691
     42 H           9.1854   -0.3955    0.0000 H       1  UNL1        0.2100
     43 H           2.8486   -0.3878    0.0000 H       1  UNL1        0.0658
     44 H           5.6544   -0.4202    0.0000 H       1  UNL1        0.0622
     45 H           8.2780    1.1361    0.0000 H       1  UNL1        0.0659
     46 H           5.4721    1.1253    0.0000 H       1  UNL1        0.0623
     47 H           7.7298   -4.2486    0.0000 H       1  UNL1        0.2921
     48 H           5.6731    1.1997    0.0000 H       1  UNL1        0.0655
     49 H           5.4659    2.7452    0.0000 H       1  UNL1        0.0655
     50 H           2.0000    1.1221    0.0000 H       1  UNL1        0.2923
     51 H           8.5978    3.5673    0.0000 H       1  UNL1        0.2923
     52 H           4.8245    2.7096    0.0000 H       1  UNL1        0.2923
     53 H           6.3261    4.2486    0.0000 H       1  UNL1        0.2923
@<TRIPOS>BOND
     1     1    13    1
     2     1    14    1
     3     2    18    1
     4     2    23    1
     5    11     3    1
     6     3    42    1
     7     4    19    1
     8     4    47    1
     9     5    23    2
    10     6    28    1
    11     6    50    1
    12     7    30    1
    13     7    51    1
    14     8    32    1
    15     8    52    1
    16     9    33    1
    17     9    53    1
    18    10    12    1
    19    10    17    1
    20    10    20    1
    21    10    34    1
    22    11    13    1
    23    11    15    1
    24    11    35    1
    25    12    14   ar
    26    12    18   ar
    27    13    21    1
    28    13    36    1
    29    14    16   ar
    30    15    16    1
    31    15    37    1
    32    15    38    1
    33    16    19   ar
    34    17    23    1
    35    17    39    1
    36    17    40    1
    37    18    22   ar
    38    19    22   ar
    39    20    24   ar
    40    20    25   ar
    41    21    26   ar
    42    21    27   ar
    43    22    41    1
    44    24    28   ar
    45    24    43    1
    46    25    29   ar
    47    25    44    1
    48    26    30   ar
    49    26    45    1
    50    27    31   ar
    51    27    46    1
    52    28    32   ar
    53    29    32   ar
    54    29    48    1
    55    30    33   ar
    56    31    33   ar
    57    31    49    1
