@<TRIPOS>MOLECULE
IMPHY005498
 19 18 0 0 0
SMALL
GASTEIGER

@<TRIPOS>ATOM
      1 S           3.4030   -0.2500    0.0000 S.3     1  UNL1       -0.0964
      2 S           2.5369    0.2500    0.0000 S.3     1  UNL1       -0.1104
      3 C           6.0010    0.2500    0.0000 C.3     1  UNL1       -0.0525
      4 C           5.1350   -0.2500    0.0000 C.3     1  UNL1       -0.0432
      5 C           6.8671   -0.2500    0.0000 C.3     1  UNL1       -0.0559
      6 C           4.2690    0.2500    0.0000 C.3     1  UNL1        0.0037
      7 C           7.7331    0.2500    0.0000 C.3     1  UNL1       -0.0653
      8 H           6.3996    0.7249    0.0000 H       1  UNL1        0.0265
      9 H           5.6025    0.7249    0.0000 H       1  UNL1        0.0265
     10 H           4.7365   -0.7249    0.0000 H       1  UNL1        0.0273
     11 H           5.5335   -0.7249    0.0000 H       1  UNL1        0.0273
     12 H           6.4685   -0.7249    0.0000 H       1  UNL1        0.0263
     13 H           7.2656   -0.7249    0.0000 H       1  UNL1        0.0263
     14 H           4.6675    0.7249    0.0000 H       1  UNL1        0.0384
     15 H           3.8705    0.7249    0.0000 H       1  UNL1        0.0384
     16 H           8.0431   -0.2869    0.0000 H       1  UNL1        0.0230
     17 H           8.2700    0.5600    0.0000 H       1  UNL1        0.0230
     18 H           7.4231    0.7869    0.0000 H       1  UNL1        0.0230
     19 H           2.0000   -0.0600    0.0000 H       1  UNL1        0.1140
@<TRIPOS>BOND
     1     1     2    1
     2     1     6    1
     3     2    19    1
     4     3     4    1
     5     3     5    1
     6     3     8    1
     7     3     9    1
     8     4     6    1
     9     4    10    1
    10     4    11    1
    11     5     7    1
    12     5    12    1
    13     5    13    1
    14     6    14    1
    15     6    15    1
    16     7    16    1
    17     7    17    1
    18     7    18    1
