@<TRIPOS>MOLECULE
IMPHY009808
 41 43 0 0 0
SMALL
GASTEIGER

@<TRIPOS>ATOM
      1 O           3.8611    2.0526    0.0000 O.2     1  UNL1       -0.4353
      2 O           4.6701   -2.5352    0.0000 O.3     1  UNL1       -0.4880
      3 N           5.1701    3.0036    0.0000 N.ar    1  UNL1       -0.2168
      4 N           3.4013    5.5352    0.0000 N.ar    1  UNL1       -0.2625
      5 C           4.6701    0.4648    0.0000 C.ar    1  UNL1        0.0191
      6 C           4.6701    1.4648    0.0000 C.ar    1  UNL1        0.1556
      7 C           4.6701   -1.5352    0.0000 C.ar    1  UNL1        0.1210
      8 C           5.5361   -0.0352    0.0000 C.ar    1  UNL1       -0.0476
      9 C           3.8041   -0.0352    0.0000 C.ar    1  UNL1       -0.0476
     10 C           5.5361   -1.0352    0.0000 C.ar    1  UNL1       -0.0193
     11 C           3.8041   -1.0352    0.0000 C.ar    1  UNL1       -0.0193
     12 C           4.1701    3.0036    0.0000 C.ar    1  UNL1        0.2293
     13 C           5.5361   -3.0352    0.0000 C.3     1  UNL1        0.1080
     14 C           5.4791    2.0526    0.0000 C.ar    1  UNL1        0.0743
     15 C           3.5823    3.8126    0.0000 C.ar    1  UNL1        0.0550
     16 C           5.5361   -4.0352    0.0000 C.2     1  UNL1       -0.0484
     17 C           6.4021   -4.5352    0.0000 C.2     1  UNL1       -0.0765
     18 C           2.5878    3.7081    0.0000 C.ar    1  UNL1       -0.0466
     19 C           3.9890    4.7262    0.0000 C.ar    1  UNL1        0.0398
     20 C           6.4021   -5.5352    0.0000 C.3     1  UNL1       -0.0439
     21 C           7.2682   -4.0352    0.0000 C.3     1  UNL1       -0.0439
     22 C           2.0000    4.5171    0.0000 C.ar    1  UNL1       -0.0429
     23 C           2.4067    5.4307    0.0000 C.ar    1  UNL1        0.0276
     24 H           6.0730    0.2748    0.0000 H       1  UNL1        0.0626
     25 H           3.2671    0.2748    0.0000 H       1  UNL1        0.0626
     26 H           6.0730   -1.3452    0.0000 H       1  UNL1        0.0654
     27 H           3.2671   -1.3452    0.0000 H       1  UNL1        0.0654
     28 H           6.1467   -3.1429    0.0000 H       1  UNL1        0.0742
     29 H           5.7482   -2.4526    0.0000 H       1  UNL1        0.0742
     30 H           6.0688    1.8610    0.0000 H       1  UNL1        0.0868
     31 H           4.9992   -4.3452    0.0000 H       1  UNL1        0.0605
     32 H           2.3356    3.1417    0.0000 H       1  UNL1        0.0626
     33 H           4.6056    4.7910    0.0000 H       1  UNL1        0.0837
     34 H           5.7821   -5.5352    0.0000 H       1  UNL1        0.0274
     35 H           6.4021   -6.1552    0.0000 H       1  UNL1        0.0274
     36 H           7.0221   -5.5352    0.0000 H       1  UNL1        0.0274
     37 H           7.5782   -4.5722    0.0000 H       1  UNL1        0.0274
     38 H           7.8051   -3.7252    0.0000 H       1  UNL1        0.0274
     39 H           6.9582   -3.4983    0.0000 H       1  UNL1        0.0274
     40 H           1.3834    4.4523    0.0000 H       1  UNL1        0.0633
     41 H           2.0423    5.9323    0.0000 H       1  UNL1        0.0829
@<TRIPOS>BOND
     1     1     6   ar
     2     1    12   ar
     3     2     7    1
     4     2    13    1
     5     3    12   ar
     6     3    14   ar
     7     4    19   ar
     8     4    23   ar
     9     5     6    1
    10     5     8   ar
    11     5     9   ar
    12     6    14   ar
    13     7    10   ar
    14     7    11   ar
    15     8    10   ar
    16     8    24    1
    17     9    11   ar
    18     9    25    1
    19    10    26    1
    20    11    27    1
    21    12    15    1
    22    13    16    1
    23    13    28    1
    24    13    29    1
    25    14    30    1
    26    15    18   ar
    27    15    19   ar
    28    16    17    2
    29    16    31    1
    30    17    20    1
    31    17    21    1
    32    18    22   ar
    33    18    32    1
    34    19    33    1
    35    20    34    1
    36    20    35    1
    37    20    36    1
    38    21    37    1
    39    21    38    1
    40    21    39    1
    41    22    23   ar
    42    22    40    1
    43    23    41    1
