@<TRIPOS>MOLECULE
IMPHY002166
 171 181 0 0 0
SMALL
GASTEIGER

@<TRIPOS>ATOM
      1 O          10.8882    7.0403    0.0000 O.3     1  UNL1       -0.3448
      2 O           9.1158    7.9351    0.0000 O.3     1  UNL1       -0.3480
      3 O           9.4651   -1.2038    0.0000 O.3     1  UNL1       -0.3454
      4 O           7.7331   -1.2038    0.0000 O.3     1  UNL1       -0.3405
      5 O           9.4651   -3.2038    0.0000 O.3     1  UNL1       -0.3377
      6 O           7.7331   -4.2038    0.0000 O.3     1  UNL1       -0.3400
      7 O           6.0010   -3.2038    0.0000 O.3     1  UNL1       -0.3865
      8 O          10.3312   -1.7038    0.0000 O.3     1  UNL1       -0.3405
      9 O           6.0010   -0.2037    0.0000 O.3     1  UNL1       -0.3924
     10 O           6.0010   -4.2038    0.0000 O.3     1  UNL1       -0.3405
     11 O          11.1972   -4.2038    0.0000 O.3     1  UNL1       -0.3841
     12 O           7.7331   -6.2038    0.0000 O.3     1  UNL1       -0.3378
     13 O          12.9292   -3.2038    0.0000 O.3     1  UNL1       -0.3864
     14 O           6.0010   -7.2038    0.0000 O.3     1  UNL1       -0.3401
     15 O          12.9292   -1.2038    0.0000 O.3     1  UNL1       -0.3865
     16 O           4.2690   -6.2038    0.0000 O.3     1  UNL1       -0.3865
     17 O          12.0632    0.2963    0.0000 O.3     1  UNL1       -0.3924
     18 O           6.8671   -7.7038    0.0000 O.3     1  UNL1       -0.3461
     19 O           4.2690   -3.2038    0.0000 O.3     1  UNL1       -0.3924
     20 O           4.2690   -7.2038    0.0000 O.3     1  UNL1       -0.3461
     21 O           9.4651   -7.2038    0.0000 O.3     1  UNL1       -0.3841
     22 O           6.0010   -9.2038    0.0000 O.3     1  UNL1       -0.3841
     23 O           9.4651   -9.2038    0.0000 O.3     1  UNL1       -0.3864
     24 O           7.7331  -10.2037    0.0000 O.3     1  UNL1       -0.3869
     25 O           4.2690  -10.2037    0.0000 O.3     1  UNL1       -0.3864
     26 O           2.5369   -9.2038    0.0000 O.3     1  UNL1       -0.3869
     27 C           9.4944    4.9931    0.0000 C.3     1  UNL1       -0.0233
     28 C          10.3623    4.4965    0.0000 C.3     1  UNL1       -0.0298
     29 C          10.3662    3.4965    0.0000 C.3     1  UNL1       -0.0343
     30 C           9.6999    5.9657    0.0000 C.3     1  UNL1       -0.0015
     31 C           9.5021    2.9931    0.0000 C.3     1  UNL1       -0.0323
     32 C          10.6882    6.0726    0.0000 C.3     1  UNL1        0.0660
     33 C           9.4901    1.9516    0.0000 C.3     1  UNL1       -0.0260
     34 C          11.0968    5.1664    0.0000 C.3     1  UNL1       -0.0226
     35 C           8.6303    4.4898    0.0000 C.3     1  UNL1       -0.0467
     36 C           8.6342    3.4898    0.0000 C.3     1  UNL1       -0.0489
     37 C           9.2976    6.8683    0.0000 C.3     1  UNL1        0.0160
     38 C          10.3901    1.4273    0.0000 C.3     1  UNL1       -0.0330
     39 C          11.2781    2.9931    0.0000 C.3     1  UNL1       -0.0494
     40 C          10.0305    7.5311    0.0000 C.3     1  UNL1        0.1732
     41 C          11.2902    1.9516    0.0000 C.3     1  UNL1       -0.0494
     42 C           8.6264    5.4898    0.0000 C.3     1  UNL1       -0.0590
     43 C           8.5402    1.4273    0.0000 C.3     1  UNL1       -0.0448
     44 C          10.4027    0.3424    0.0000 C.3     1  UNL1       -0.0232
     45 C           8.6260    2.4549    0.0000 C.3     1  UNL1       -0.0590
     46 C           8.5276    0.3424    0.0000 C.3     1  UNL1       -0.0260
     47 C           8.3192    7.0750    0.0000 C.3     1  UNL1       -0.0572
     48 C           9.4651   -0.2037    0.0000 C.3     1  UNL1        0.0621
     49 C          10.8378    8.1213    0.0000 C.3     1  UNL1        0.0020
     50 C          10.7303    9.1155    0.0000 C.3     1  UNL1       -0.0435
     51 C           9.0083    8.9293    0.0000 C.3     1  UNL1        0.0535
     52 C           9.8155    9.5195    0.0000 C.3     1  UNL1       -0.0201
     53 C           9.7080   10.5137    0.0000 C.3     1  UNL1       -0.0603
     54 C           8.5991   -1.7038    0.0000 C.3     1  UNL1        0.1886
     55 C           8.5991   -2.7038    0.0000 C.3     1  UNL1        0.1410
     56 C           7.7331   -3.2038    0.0000 C.3     1  UNL1        0.1209
     57 C           6.8671   -1.7038    0.0000 C.3     1  UNL1        0.1130
     58 C           6.8671   -2.7038    0.0000 C.3     1  UNL1        0.1123
     59 C           6.0010   -1.2038    0.0000 C.3     1  UNL1        0.0730
     60 C          10.3312   -2.7038    0.0000 C.3     1  UNL1        0.1885
     61 C           6.8671   -4.7038    0.0000 C.3     1  UNL1        0.1888
     62 C          11.1972   -3.2038    0.0000 C.3     1  UNL1        0.1341
     63 C           6.8671   -5.7038    0.0000 C.3     1  UNL1        0.1410
     64 C          12.0632   -2.7038    0.0000 C.3     1  UNL1        0.1141
     65 C          11.1972   -1.2038    0.0000 C.3     1  UNL1        0.1130
     66 C          12.0632   -1.7038    0.0000 C.3     1  UNL1        0.1119
     67 C           6.0010   -6.2038    0.0000 C.3     1  UNL1        0.1209
     68 C           5.1350   -4.7038    0.0000 C.3     1  UNL1        0.1130
     69 C           5.1350   -5.7038    0.0000 C.3     1  UNL1        0.1123
     70 C          11.1972   -0.2037    0.0000 C.3     1  UNL1        0.0730
     71 C           4.2690   -4.2038    0.0000 C.3     1  UNL1        0.0730
     72 C           7.7331   -7.2038    0.0000 C.3     1  UNL1        0.1881
     73 C           5.1350   -7.7038    0.0000 C.3     1  UNL1        0.1880
     74 C           8.5991   -7.7038    0.0000 C.3     1  UNL1        0.1341
     75 C           5.1350   -8.7038    0.0000 C.3     1  UNL1        0.1341
     76 C           8.5991   -8.7038    0.0000 C.3     1  UNL1        0.1137
     77 C           6.8671   -8.7038    0.0000 C.3     1  UNL1        0.0792
     78 C           7.7331   -9.2038    0.0000 C.3     1  UNL1        0.1069
     79 C           4.2690   -9.2038    0.0000 C.3     1  UNL1        0.1137
     80 C           3.4030   -7.7038    0.0000 C.3     1  UNL1        0.0792
     81 C           3.4030   -8.7038    0.0000 C.3     1  UNL1        0.1069
     82 H          11.1406    4.1548    0.0000 H       1  UNL1        0.0310
     83 H          11.0974    3.9300    0.0000 H       1  UNL1        0.0306
     84 H           8.8546    5.8762    0.0000 H       1  UNL1        0.0335
     85 H          10.2366    2.5653    0.0000 H       1  UNL1        0.0309
     86 H          11.5330    6.1658    0.0000 H       1  UNL1        0.0600
     87 H          11.4642    4.6670    0.0000 H       1  UNL1        0.0293
     88 H          11.6321    5.4792    0.0000 H       1  UNL1        0.0293
     89 H           8.4160    5.0716    0.0000 H       1  UNL1        0.0271
     90 H           8.0201    4.3798    0.0000 H       1  UNL1        0.0271
     91 H           8.0232    3.5951    0.0000 H       1  UNL1        0.0268
     92 H           8.4244    2.9064    0.0000 H       1  UNL1        0.0268
     93 H           9.1361    7.4669    0.0000 H       1  UNL1        0.0354
     94 H          11.1295    1.0080    0.0000 H       1  UNL1        0.0307
     95 H          11.8902    2.8941    0.0000 H       1  UNL1        0.0268
     96 H          11.4804    3.5792    0.0000 H       1  UNL1        0.0268
     97 H          11.5060    1.3703    0.0000 H       1  UNL1        0.0268
     98 H          11.8998    2.0647    0.0000 H       1  UNL1        0.0268
     99 H           8.9344    6.0279    0.0000 H       1  UNL1        0.0235
    100 H           8.0883    5.7977    0.0000 H       1  UNL1        0.0235
    101 H           8.3185    4.9517    0.0000 H       1  UNL1        0.0235
    102 H           8.3379    2.0134    0.0000 H       1  UNL1        0.0271
    103 H           7.9281    1.3283    0.0000 H       1  UNL1        0.0271
    104 H          10.6185   -0.2389    0.0000 H       1  UNL1        0.0293
    105 H          11.0123    0.4555    0.0000 H       1  UNL1        0.0293
    106 H           8.9380    2.9906    0.0000 H       1  UNL1        0.0235
    107 H           8.0902    2.7670    0.0000 H       1  UNL1        0.0235
    108 H           8.3139    1.9192    0.0000 H       1  UNL1        0.0235
    109 H           7.9180    0.4555    0.0000 H       1  UNL1        0.0290
    110 H           8.3118   -0.2389    0.0000 H       1  UNL1        0.0290
    111 H           8.4473    7.6816    0.0000 H       1  UNL1        0.0234
    112 H           7.7125    7.2032    0.0000 H       1  UNL1        0.0234
    113 H           8.1910    6.4684    0.0000 H       1  UNL1        0.0234
    114 H          10.0027   -0.5127    0.0000 H       1  UNL1        0.0597
    115 H          11.1112    7.5649    0.0000 H       1  UNL1        0.0317
    116 H          11.4333    8.2940    0.0000 H       1  UNL1        0.0317
    117 H          11.3489    9.0741    0.0000 H       1  UNL1        0.0270
    118 H          10.8785    9.7176    0.0000 H       1  UNL1        0.0270
    119 H           8.7348    9.4858    0.0000 H       1  UNL1        0.0563
    120 H           8.4128    8.7567    0.0000 H       1  UNL1        0.0563
    121 H          10.3160    9.8855    0.0000 H       1  UNL1        0.0320
    122 H          10.3244   10.5804    0.0000 H       1  UNL1        0.0233
    123 H           9.6414   11.1302    0.0000 H       1  UNL1        0.0233
    124 H           9.0916   10.4471    0.0000 H       1  UNL1        0.0233
    125 H           8.5991   -1.0838    0.0000 H       1  UNL1        0.0938
    126 H           8.5991   -3.3238    0.0000 H       1  UNL1        0.0675
    127 H           7.1962   -3.5138    0.0000 H       1  UNL1        0.0651
    128 H           6.8671   -1.0838    0.0000 H       1  UNL1        0.0647
    129 H           6.3301   -2.3938    0.0000 H       1  UNL1        0.0647
    130 H           5.3905   -1.0961    0.0000 H       1  UNL1        0.0584
    131 H           5.7890   -1.7864    0.0000 H       1  UNL1        0.0584
    132 H           9.7942   -2.3938    0.0000 H       1  UNL1        0.0938
    133 H           5.4641   -2.8938    0.0000 H       1  UNL1        0.2100
    134 H           7.4040   -5.0138    0.0000 H       1  UNL1        0.0938
    135 H          11.7341   -3.5138    0.0000 H       1  UNL1        0.0671
    136 H           5.4641    0.1063    0.0000 H       1  UNL1        0.2095
    137 H           6.8671   -6.3238    0.0000 H       1  UNL1        0.0675
    138 H          12.6002   -2.3938    0.0000 H       1  UNL1        0.0648
    139 H          10.6603   -0.8937    0.0000 H       1  UNL1        0.0647
    140 H          12.0632   -1.0838    0.0000 H       1  UNL1        0.0647
    141 H           5.4641   -6.5138    0.0000 H       1  UNL1        0.0651
    142 H           5.1350   -4.0838    0.0000 H       1  UNL1        0.0647
    143 H           4.5981   -5.3938    0.0000 H       1  UNL1        0.0647
    144 H          11.7341   -4.5138    0.0000 H       1  UNL1        0.2101
    145 H          10.9851    0.3789    0.0000 H       1  UNL1        0.0584
    146 H          10.5866   -0.3114    0.0000 H       1  UNL1        0.0584
    147 H          13.4662   -2.8938    0.0000 H       1  UNL1        0.2100
    148 H           3.6584   -4.0961    0.0000 H       1  UNL1        0.0584
    149 H           4.0569   -4.7864    0.0000 H       1  UNL1        0.0584
    150 H          12.9292   -0.5837    0.0000 H       1  UNL1        0.2100
    151 H           8.2700   -6.8938    0.0000 H       1  UNL1        0.0937
    152 H           3.7320   -5.8938    0.0000 H       1  UNL1        0.2100
    153 H           5.1350   -7.0838    0.0000 H       1  UNL1        0.0937
    154 H          12.0632    0.9163    0.0000 H       1  UNL1        0.2095
    155 H           9.1360   -8.0138    0.0000 H       1  UNL1        0.0671
    156 H           3.7320   -2.8938    0.0000 H       1  UNL1        0.2095
    157 H           5.1350   -9.3238    0.0000 H       1  UNL1        0.0671
    158 H           8.5991   -9.3238    0.0000 H       1  UNL1        0.0647
    159 H           6.2565   -8.5961    0.0000 H       1  UNL1        0.0587
    160 H           6.6550   -9.2864    0.0000 H       1  UNL1        0.0587
    161 H           7.1962   -9.5138    0.0000 H       1  UNL1        0.0643
    162 H           3.7320   -9.5138    0.0000 H       1  UNL1        0.0647
    163 H          10.0021   -7.5138    0.0000 H       1  UNL1        0.2101
    164 H           3.1909   -7.1211    0.0000 H       1  UNL1        0.0587
    165 H           2.7924   -7.8114    0.0000 H       1  UNL1        0.0587
    166 H           2.8660   -8.3938    0.0000 H       1  UNL1        0.0643
    167 H           6.0010   -9.8238    0.0000 H       1  UNL1        0.2101
    168 H           9.4651   -9.8238    0.0000 H       1  UNL1        0.2100
    169 H           7.1962  -10.5137    0.0000 H       1  UNL1        0.2100
    170 H           3.7320  -10.5137    0.0000 H       1  UNL1        0.2100
    171 H           2.0000   -8.8938    0.0000 H       1  UNL1        0.2100
@<TRIPOS>BOND
     1     1    32    1
     2    40     1    1
     3     2    40    1
     4     2    51    1
     5    48     3    1
     6    54     3    1
     7     4    54    1
     8     4    57    1
     9    55     5    1
    10    60     5    1
    11    56     6    1
    12    61     6    1
    13    58     7    1
    14     7   133    1
    15     8    60    1
    16     8    65    1
    17     9    59    1
    18     9   136    1
    19    10    61    1
    20    10    68    1
    21    62    11    1
    22    11   144    1
    23    63    12    1
    24    72    12    1
    25    64    13    1
    26    13   147    1
    27    67    14    1
    28    73    14    1
    29    66    15    1
    30    15   150    1
    31    69    16    1
    32    16   152    1
    33    17    70    1
    34    17   154    1
    35    18    72    1
    36    18    77    1
    37    19    71    1
    38    19   156    1
    39    20    73    1
    40    20    80    1
    41    74    21    1
    42    21   163    1
    43    75    22    1
    44    22   167    1
    45    76    23    1
    46    23   168    1
    47    78    24    1
    48    24   169    1
    49    79    25    1
    50    25   170    1
    51    81    26    1
    52    26   171    1
    53    27    28    1
    54    27    30    1
    55    27    35    1
    56    27    42    1
    57    28    29    1
    58    28    34    1
    59    28    82    1
    60    29    31    1
    61    29    39    1
    62    29    83    1
    63    30    32    1
    64    30    37    1
    65    30    84    1
    66    31    33    1
    67    31    36    1
    68    31    85    1
    69    32    34    1
    70    32    86    1
    71    33    38    1
    72    33    43    1
    73    33    45    1
    74    34    87    1
    75    34    88    1
    76    35    36    1
    77    35    89    1
    78    35    90    1
    79    36    91    1
    80    36    92    1
    81    37    40    1
    82    37    47    1
    83    37    93    1
    84    38    41    1
    85    38    44    1
    86    38    94    1
    87    39    41    1
    88    39    95    1
    89    39    96    1
    90    40    49    1
    91    41    97    1
    92    41    98    1
    93    42    99    1
    94    42   100    1
    95    42   101    1
    96    43    46    1
    97    43   102    1
    98    43   103    1
    99    44    48    1
   100    44   104    1
   101    44   105    1
   102    45   106    1
   103    45   107    1
   104    45   108    1
   105    46    48    1
   106    46   109    1
   107    46   110    1
   108    47   111    1
   109    47   112    1
   110    47   113    1
   111    48   114    1
   112    49    50    1
   113    49   115    1
   114    49   116    1
   115    50    52    1
   116    50   117    1
   117    50   118    1
   118    51    52    1
   119    51   119    1
   120    51   120    1
   121    52    53    1
   122    52   121    1
   123    53   122    1
   124    53   123    1
   125    53   124    1
   126    54    55    1
   127    54   125    1
   128    55    56    1
   129    55   126    1
   130    56    58    1
   131    56   127    1
   132    57    58    1
   133    57    59    1
   134    57   128    1
   135    58   129    1
   136    59   130    1
   137    59   131    1
   138    60    62    1
   139    60   132    1
   140    61    63    1
   141    61   134    1
   142    62    64    1
   143    62   135    1
   144    63    67    1
   145    63   137    1
   146    64    66    1
   147    64   138    1
   148    65    66    1
   149    65    70    1
   150    65   139    1
   151    66   140    1
   152    67    69    1
   153    67   141    1
   154    68    69    1
   155    68    71    1
   156    68   142    1
   157    69   143    1
   158    70   145    1
   159    70   146    1
   160    71   148    1
   161    71   149    1
   162    72    74    1
   163    72   151    1
   164    73    75    1
   165    73   153    1
   166    74    76    1
   167    74   155    1
   168    75    79    1
   169    75   157    1
   170    76    78    1
   171    76   158    1
   172    77    78    1
   173    77   159    1
   174    77   160    1
   175    78   161    1
   176    79    81    1
   177    79   162    1
   178    80    81    1
   179    80   164    1
   180    80   165    1
   181    81   166    1
