@<TRIPOS>MOLECULE
IMPHY017302
 26 25 0 0 0
SMALL
GASTEIGER

@<TRIPOS>ATOM
      1 C           5.4641    0.2500    0.0000 C.3     1  UNL1       -0.0454
      2 C           6.3301    0.7500    0.0000 C.3     1  UNL1       -0.0320
      3 C           4.5981    0.7500    0.0000 C.3     1  UNL1       -0.0280
      4 C           7.1962    0.2500    0.0000 C.2     1  UNL1       -0.0797
      5 C           3.7320    0.2500    0.0000 C.2     1  UNL1       -0.0550
      6 C           8.0622    0.7500    0.0000 C.3     1  UNL1       -0.0440
      7 C           7.1962   -0.7500    0.0000 C.2     1  UNL1       -0.0997
      8 C           2.8660    0.7500    0.0000 C.2     1  UNL1       -0.0662
      9 C           3.7320   -0.7500    0.0000 C.2     1  UNL1       -0.0955
     10 C           2.0000    0.2500    0.0000 C.2     1  UNL1       -0.0985
     11 H           5.0656   -0.2249    0.0000 H       1  UNL1        0.0271
     12 H           5.8626   -0.2249    0.0000 H       1  UNL1        0.0271
     13 H           6.7287    1.2250    0.0000 H       1  UNL1        0.0310
     14 H           5.9316    1.2250    0.0000 H       1  UNL1        0.0310
     15 H           4.9966    1.2250    0.0000 H       1  UNL1        0.0313
     16 H           4.1996    1.2250    0.0000 H       1  UNL1        0.0313
     17 H           8.3722    0.2131    0.0000 H       1  UNL1        0.0274
     18 H           8.5991    1.0600    0.0000 H       1  UNL1        0.0274
     19 H           7.7522    1.2869    0.0000 H       1  UNL1        0.0274
     20 H           6.6592   -1.0600    0.0000 H       1  UNL1        0.0534
     21 H           7.7331   -1.0600    0.0000 H       1  UNL1        0.0534
     22 H           2.8660    1.3700    0.0000 H       1  UNL1        0.0614
     23 H           3.1951   -1.0600    0.0000 H       1  UNL1        0.0537
     24 H           4.2690   -1.0600    0.0000 H       1  UNL1        0.0537
     25 H           1.4631    0.5600    0.0000 H       1  UNL1        0.0535
     26 H           2.0000   -0.3700    0.0000 H       1  UNL1        0.0535
@<TRIPOS>BOND
     1     1     2    1
     2     1     3    1
     3     1    11    1
     4     1    12    1
     5     2     4    1
     6     2    13    1
     7     2    14    1
     8     3     5    1
     9     3    15    1
    10     3    16    1
    11     4     6    1
    12     4     7    2
    13     5     8    1
    14     5     9    2
    15     6    17    1
    16     6    18    1
    17     6    19    1
    18     7    20    1
    19     7    21    1
    20     8    10    2
    21     8    22    1
    22     9    23    1
    23     9    24    1
    24    10    25    1
    25    10    26    1
