@<TRIPOS>MOLECULE
IMPHY009721
 105 114 0 0 0
SMALL
GASTEIGER

@<TRIPOS>ATOM
      1 O           4.6575    2.2906    0.0000 O.3     1  UNL1       -0.3563
      2 O           6.3898    4.2911    0.0000 O.3     1  UNL1       -0.3648
      3 O           4.5078    1.7573    0.0000 O.3     1  UNL1       -0.3850
      4 O           3.7478    4.7979    0.0000 O.3     1  UNL1       -0.3391
      5 O           4.6418    6.3603    0.0000 O.3     1  UNL1       -0.3391
      6 O           6.1163   -6.9550    0.0000 O.3     1  UNL1       -0.3670
      7 O           9.3948   -5.6304    0.0000 O.2     1  UNL1       -0.2916
      8 N           8.2797   -0.7027    0.0000 N.ar    1  UNL1       -0.3572
      9 C           5.5238    2.7911    0.0000 C.3     1  UNL1        0.1533
     10 C           5.5077    1.7496    0.0000 C.3     1  UNL1        0.1060
     11 C           6.4058    1.2218    0.0000 C.3     1  UNL1        0.0107
     12 C           6.4142    0.1368    0.0000 C.3     1  UNL1        0.0195
     13 C           4.6578    3.2911    0.0000 C.3     1  UNL1        0.1224
     14 C           6.3898    3.2911    0.0000 C.3     1  UNL1        0.0935
     15 C           5.4745   -0.4057    0.0000 C.3     1  UNL1       -0.0255
     16 C           7.3079    1.7426    0.0000 C.3     1  UNL1       -0.0416
     17 C           4.5558    1.2289    0.0000 C.3     1  UNL1       -0.0203
     18 C           7.2998    2.7842    0.0000 C.3     1  UNL1       -0.0231
     19 C           4.6578    4.2911    0.0000 C.3     1  UNL1        0.1197
     20 C           4.5391    0.1441    0.0000 C.3     1  UNL1       -0.0463
     21 C           7.2138   -0.5869    0.0000 C.ar    1  UNL1        0.0271
     22 C           7.3892    1.0406    0.0000 C.3     1  UNL1       -0.0560
     23 C           5.5238    4.7911    0.0000 C.3     1  UNL1        0.1162
     24 C           5.7015   -1.4601    0.0000 C.3     1  UNL1       -0.0217
     25 C           7.3990    0.3105    0.0000 C.3     1  UNL1       -0.0533
     26 C           6.7743   -1.5719    0.0000 C.ar    1  UNL1       -0.0180
     27 C           5.5399    5.8326    0.0000 C.3     1  UNL1        0.0958
     28 C           7.5723   -2.2879    0.0000 C.ar    1  UNL1        0.0070
     29 C           8.5008   -1.7518    0.0000 C.ar    1  UNL1        0.0472
     30 C           3.7398    5.8395    0.0000 C.3     1  UNL1        0.1799
     31 C           6.0498    6.6928    0.0000 C.3     1  UNL1       -0.0334
     32 C           6.5398    5.8210    0.0000 C.3     1  UNL1       -0.0334
     33 C           7.5551   -3.4046    0.0000 C.ar    1  UNL1       -0.0271
     34 C           9.4765   -2.2953    0.0000 C.ar    1  UNL1       -0.0371
     35 C           6.5344   -3.9628    0.0000 C.3     1  UNL1       -0.0202
     36 C           8.5179   -3.9705    0.0000 C.ar    1  UNL1        0.0217
     37 C           6.5165   -5.1260    0.0000 C.3     1  UNL1        0.0041
     38 C           2.8718    6.3362    0.0000 C.2     1  UNL1       -0.0301
     39 C           7.5194   -5.7154    0.0000 C.3     1  UNL1        0.0563
     40 C           9.4851   -3.4121    0.0000 C.ar    1  UNL1       -0.0490
     41 C           5.6532   -5.8954    0.0000 C.3     1  UNL1        0.0685
     42 C           8.5269   -5.1338    0.0000 C.2     1  UNL1        0.1696
     43 C           7.2674   -6.8440    0.0000 C.3     1  UNL1        0.0748
     44 C           2.8680    7.3362    0.0000 C.2     1  UNL1       -0.0749
     45 C           4.7372   -6.2967    0.0000 C.3     1  UNL1       -0.0358
     46 C           4.9885   -5.1483    0.0000 C.3     1  UNL1       -0.0358
     47 C           7.3625   -7.8395    0.0000 C.3     1  UNL1       -0.0354
     48 C           8.2435   -7.0612    0.0000 C.3     1  UNL1       -0.0354
     49 C           2.0000    7.8328    0.0000 C.3     1  UNL1       -0.0439
     50 C           3.7320    7.8395    0.0000 C.3     1  UNL1       -0.0439
     51 H           3.8078    3.2912    0.0000 H       1  UNL1        0.0654
     52 H           7.1226    3.7217    0.0000 H       1  UNL1        0.0627
     53 H           4.7856   -0.9035    0.0000 H       1  UNL1        0.0313
     54 H           7.5214    1.1606    0.0000 H       1  UNL1        0.0273
     55 H           7.9179    1.8534    0.0000 H       1  UNL1        0.0273
     56 H           4.3558    1.8158    0.0000 H       1  UNL1        0.0294
     57 H           3.9434    1.1323    0.0000 H       1  UNL1        0.0294
     58 H           7.9115    2.6828    0.0000 H       1  UNL1        0.0291
     59 H           7.5044    3.3695    0.0000 H       1  UNL1        0.0291
     60 H           3.9250    3.8604    0.0000 H       1  UNL1        0.0651
     61 H           3.9299    0.2596    0.0000 H       1  UNL1        0.0269
     62 H           4.3211   -0.4363    0.0000 H       1  UNL1        0.0269
     63 H           7.2769    0.4308    0.0000 H       1  UNL1        0.0236
     64 H           7.9990    0.9282    0.0000 H       1  UNL1        0.0236
     65 H           7.5016    1.6503    0.0000 H       1  UNL1        0.0236
     66 H           6.2632    5.2104    0.0000 H       1  UNL1        0.0652
     67 H           5.0850   -1.5261    0.0000 H       1  UNL1        0.0317
     68 H           5.7024   -2.0801    0.0000 H       1  UNL1        0.0317
     69 H           7.5066   -0.3001    0.0000 H       1  UNL1        0.0239
     70 H           8.0095    0.4182    0.0000 H       1  UNL1        0.0239
     71 H           7.2913    0.9211    0.0000 H       1  UNL1        0.0239
     72 H           3.9732    2.0713    0.0000 H       1  UNL1        0.2103
     73 H           8.6958   -0.2430    0.0000 H       1  UNL1        0.1656
     74 H           3.2046    5.5264    0.0000 H       1  UNL1        0.0958
     75 H           6.5832    6.3766    0.0000 H       1  UNL1        0.0258
     76 H           6.3660    7.2261    0.0000 H       1  UNL1        0.0258
     77 H           5.5165    7.0090    0.0000 H       1  UNL1        0.0258
     78 H           6.5326    5.2011    0.0000 H       1  UNL1        0.0258
     79 H           7.1598    5.8138    0.0000 H       1  UNL1        0.0258
     80 H           6.5470    6.4410    0.0000 H       1  UNL1        0.0258
     81 H          10.0098   -1.9791    0.0000 H       1  UNL1        0.0638
     82 H           6.3344   -3.3760    0.0000 H       1  UNL1        0.0317
     83 H           5.9220   -4.0595    0.0000 H       1  UNL1        0.0317
     84 H           5.7436   -4.7723    0.0000 H       1  UNL1        0.0339
     85 H           2.3361    6.0241    0.0000 H       1  UNL1        0.0621
     86 H           8.2045   -6.2186    0.0000 H       1  UNL1        0.0413
     87 H          10.0233   -3.7200    0.0000 H       1  UNL1        0.0625
     88 H           4.4884   -5.7288    0.0000 H       1  UNL1        0.0257
     89 H           4.1693   -6.5455    0.0000 H       1  UNL1        0.0257
     90 H           4.9860   -6.8646    0.0000 H       1  UNL1        0.0257
     91 H           5.4517   -4.7362    0.0000 H       1  UNL1        0.0257
     92 H           4.5764   -4.6851    0.0000 H       1  UNL1        0.0257
     93 H           4.5252   -5.5604    0.0000 H       1  UNL1        0.0257
     94 H           8.1089   -7.6664    0.0000 H       1  UNL1        0.0257
     95 H           8.8487   -7.1958    0.0000 H       1  UNL1        0.0257
     96 H           8.3781   -6.4560    0.0000 H       1  UNL1        0.0257
     97 H           6.7453   -7.8985    0.0000 H       1  UNL1        0.0257
     98 H           7.4215   -8.4567    0.0000 H       1  UNL1        0.0257
     99 H           7.9797   -7.7805    0.0000 H       1  UNL1        0.0257
    100 H           4.0441    7.3038    0.0000 H       1  UNL1        0.0274
    101 H           4.2678    8.1516    0.0000 H       1  UNL1        0.0274
    102 H           2.3079    8.3710    0.0000 H       1  UNL1        0.0274
    103 H           1.4619    8.1408    0.0000 H       1  UNL1        0.0274
    104 H           1.6921    7.2947    0.0000 H       1  UNL1        0.0274
    105 H           3.4200    8.3752    0.0000 H       1  UNL1        0.0274
@<TRIPOS>BOND
     1     9     1    1
     2     1    13    1
     3     2    14    1
     4     2    23    1
     5    10     3    1
     6     3    72    1
     7     4    19    1
     8     4    30    1
     9     5    27    1
    10     5    30    1
    11     6    41    1
    12     6    43    1
    13     7    42    2
    14     8    21   ar
    15     8    29   ar
    16     8    73    1
    17     9    10    1
    18     9    13    1
    19     9    14    1
    20    10    11    1
    21    10    17    1
    22    11    12    1
    23    11    16    1
    24    11    22    1
    25    12    15    1
    26    12    21    1
    27    12    25    1
    28    13    19    1
    29    13    51    1
    30    14    18    1
    31    14    52    1
    32    15    20    1
    33    15    24    1
    34    15    53    1
    35    16    18    1
    36    16    54    1
    37    16    55    1
    38    17    20    1
    39    17    56    1
    40    17    57    1
    41    18    58    1
    42    18    59    1
    43    19    23    1
    44    19    60    1
    45    20    61    1
    46    20    62    1
    47    21    26   ar
    48    22    63    1
    49    22    64    1
    50    22    65    1
    51    23    27    1
    52    23    66    1
    53    24    26    1
    54    24    67    1
    55    24    68    1
    56    25    69    1
    57    25    70    1
    58    25    71    1
    59    26    28   ar
    60    27    31    1
    61    27    32    1
    62    28    29   ar
    63    28    33   ar
    64    29    34   ar
    65    30    38    1
    66    30    74    1
    67    31    75    1
    68    31    76    1
    69    31    77    1
    70    32    78    1
    71    32    79    1
    72    32    80    1
    73    33    35    1
    74    33    36   ar
    75    34    40   ar
    76    34    81    1
    77    35    37    1
    78    35    82    1
    79    35    83    1
    80    36    40   ar
    81    36    42    1
    82    37    39    1
    83    37    41    1
    84    37    84    1
    85    38    44    2
    86    38    85    1
    87    39    42    1
    88    39    43    1
    89    39    86    1
    90    40    87    1
    91    41    45    1
    92    41    46    1
    93    43    47    1
    94    43    48    1
    95    44    49    1
    96    44    50    1
    97    45    88    1
    98    45    89    1
    99    45    90    1
   100    46    91    1
   101    46    92    1
   102    46    93    1
   103    47    97    1
   104    47    98    1
   105    47    99    1
   106    48    94    1
   107    48    95    1
   108    48    96    1
   109    49   102    1
   110    49   103    1
   111    49   104    1
   112    50   100    1
   113    50   101    1
   114    50   105    1
