@<TRIPOS>MOLECULE
IMPHY016118
 27 25 0 0 0
SMALL
GASTEIGER

@<TRIPOS>ATOM
      1 O           0.5369    5.1569    0.0000 O.2     1  UNL1       -0.5146
      2 O           4.0010    1.5000    0.0000 O.3     2  UNL2       -0.4808
      3 O           3.1350    0.0000    0.0000 O.2     2  UNL2       -0.2513
      4 C           4.0010    5.1569    0.0000 C.3     1  UNL1       -0.0498
      5 C           4.8671    4.6569    0.0000 C.3     1  UNL1       -0.0556
      6 C           3.1350    4.6569    0.0000 C.3     1  UNL1       -0.0317
      7 C           5.7331    5.1569    0.0000 C.3     1  UNL1       -0.0653
      8 C           2.2690    5.1569    0.0000 C.2     1  UNL1       -0.0499
      9 C           1.4030    4.6569    0.0000 C.2     1  UNL1        0.0769
     10 C           2.2690    1.5000    0.0000 C.3     2  UNL2        0.0331
     11 C           3.1350    1.0000    0.0000 C.2     2  UNL2        0.3016
     12 H           4.3996    5.6319    0.0000 H       1  UNL1        0.0268
     13 H           3.6025    5.6319    0.0000 H       1  UNL1        0.0268
     14 H           4.4685    4.1820    0.0000 H       1  UNL1        0.0263
     15 H           5.2656    4.1820    0.0000 H       1  UNL1        0.0263
     16 H           2.7365    4.1820    0.0000 H       1  UNL1        0.0308
     17 H           3.5335    4.1820    0.0000 H       1  UNL1        0.0308
     18 H           6.0431    4.6200    0.0000 H       1  UNL1        0.0230
     19 H           6.2700    5.4669    0.0000 H       1  UNL1        0.0230
     20 H           5.4231    5.6939    0.0000 H       1  UNL1        0.0230
     21 H           2.2690    5.7769    0.0000 H       1  UNL1        0.0602
     22 H           1.4030    4.0369    0.0000 H       1  UNL1        0.1017
     23 H           0.0000    4.8469    0.0000 H       1  UNL1        0.2912
     24 H           2.5790    2.0369    0.0000 H       2  UNL2        0.0342
     25 H           1.7320    1.8100    0.0000 H       2  UNL2        0.0342
     26 H           1.9590    0.9631    0.0000 H       2  UNL2        0.0342
     27 H           4.5380    1.1900    0.0000 H       2  UNL2        0.2950
@<TRIPOS>BOND
     1     1     9    1
     2     1    23    1
     3     2    11    1
     4     2    27    1
     5     3    11    2
     6     4     5    1
     7     4     6    1
     8     4    12    1
     9     4    13    1
    10     5     7    1
    11     5    14    1
    12     5    15    1
    13     6     8    1
    14     6    16    1
    15     6    17    1
    16     7    18    1
    17     7    19    1
    18     7    20    1
    19     8     9    2
    20     8    21    1
    21     9    22    1
    22    10    11    1
    23    10    24    1
    24    10    25    1
    25    10    26    1
