@<TRIPOS>MOLECULE
IMPHY011074
 28 28 0 0 0
SMALL
GASTEIGER

@<TRIPOS>ATOM
      1 C           2.8660   -1.2500    0.0000 C.3     1  UNL1       -0.0402
      2 C           3.7320   -0.7500    0.0000 C.3     1  UNL1       -0.0465
      3 C           3.7320    0.2500    0.0000 C.3     1  UNL1       -0.0312
      4 C           2.8660    0.7500    0.0000 C.2     1  UNL1       -0.0709
      5 C           2.0000   -0.7500    0.0000 C.3     1  UNL1       -0.0319
      6 C           2.8660    1.7500    0.0000 C.3     1  UNL1       -0.0256
      7 C           2.0000    0.2500    0.0000 C.2     1  UNL1       -0.0843
      8 C           2.8660   -2.2500    0.0000 C.3     1  UNL1       -0.0621
      9 C           3.7320    2.2500    0.0000 C.3     1  UNL1       -0.0590
     10 C           2.0000    2.2500    0.0000 C.3     1  UNL1       -0.0590
     11 H           3.4030   -1.5600    0.0000 H       1  UNL1        0.0301
     12 H           3.9441   -1.3326    0.0000 H       1  UNL1        0.0271
     13 H           4.3426   -0.6423    0.0000 H       1  UNL1        0.0271
     14 H           4.3426    0.1423    0.0000 H       1  UNL1        0.0310
     15 H           3.9441    0.8326    0.0000 H       1  UNL1        0.0310
     16 H           1.3894   -0.6423    0.0000 H       1  UNL1        0.0310
     17 H           1.7880   -1.3326    0.0000 H       1  UNL1        0.0310
     18 H           2.8660    2.3700    0.0000 H       1  UNL1        0.0340
     19 H           1.4631    0.5600    0.0000 H       1  UNL1        0.0572
     20 H           2.2460   -2.2500    0.0000 H       1  UNL1        0.0233
     21 H           2.8660   -2.8700    0.0000 H       1  UNL1        0.0233
     22 H           3.4860   -2.2500    0.0000 H       1  UNL1        0.0233
     23 H           4.0420    1.7131    0.0000 H       1  UNL1        0.0235
     24 H           4.2690    2.5600    0.0000 H       1  UNL1        0.0235
     25 H           3.4220    2.7869    0.0000 H       1  UNL1        0.0235
     26 H           2.3100    2.7869    0.0000 H       1  UNL1        0.0235
     27 H           1.4631    2.5600    0.0000 H       1  UNL1        0.0235
     28 H           1.6900    1.7131    0.0000 H       1  UNL1        0.0235
@<TRIPOS>BOND
     1     1     2    1
     2     1     5    1
     3     1     8    1
     4     1    11    1
     5     2     3    1
     6     2    12    1
     7     2    13    1
     8     3     4    1
     9     3    14    1
    10     3    15    1
    11     4     6    1
    12     4     7    2
    13     5     7    1
    14     5    16    1
    15     5    17    1
    16     6     9    1
    17     6    10    1
    18     6    18    1
    19     7    19    1
    20     8    20    1
    21     8    21    1
    22     8    22    1
    23     9    23    1
    24     9    24    1
    25     9    25    1
    26    10    26    1
    27    10    27    1
    28    10    28    1
