@<TRIPOS>MOLECULE
IMPHY013063
 34 36 0 0 0
SMALL
GASTEIGER

@<TRIPOS>ATOM
      1 O           3.5836   -2.0894    0.0000 O.3     1  UNL1       -0.4533
      2 O           2.0000   -1.2846    0.0000 O.2     1  UNL1       -0.2453
      3 O           8.0479    1.2605    0.0000 O.3     1  UNL1       -0.5065
      4 C           6.2619   -1.7846    0.0000 C.3     1  UNL1       -0.0143
      5 C           4.5298   -1.7846    0.0000 C.3     1  UNL1        0.1299
      6 C           5.3958   -2.2846    0.0000 C.3     1  UNL1       -0.0048
      7 C           4.5298   -0.7846    0.0000 C.2     1  UNL1        0.0098
      8 C           6.2619   -0.7846    0.0000 C.ar    1  UNL1       -0.0334
      9 C           5.3958   -0.2846    0.0000 C.ar    1  UNL1       -0.0140
     10 C           3.5836   -0.4799    0.0000 C.2     1  UNL1        0.0407
     11 C           7.1279   -2.2846    0.0000 C.3     1  UNL1       -0.0583
     12 C           7.1719   -0.2778    0.0000 C.ar    1  UNL1       -0.0159
     13 C           5.3798    0.7569    0.0000 C.ar    1  UNL1       -0.0476
     14 C           3.0000   -1.2846    0.0000 C.2     1  UNL1        0.3359
     15 C           6.2778    1.2846    0.0000 C.ar    1  UNL1       -0.0084
     16 C           7.1799    0.7638    0.0000 C.ar    1  UNL1        0.1201
     17 C           3.2729    0.4706    0.0000 C.3     1  UNL1       -0.0325
     18 C           6.2740    2.2846    0.0000 C.3     1  UNL1       -0.0362
     19 H           6.2619   -2.4046    0.0000 H       1  UNL1        0.0348
     20 H           4.4399   -2.6298    0.0000 H       1  UNL1        0.0786
     21 H           4.9973   -2.7596    0.0000 H       1  UNL1        0.0310
     22 H           5.7944   -2.7596    0.0000 H       1  UNL1        0.0310
     23 H           6.8179   -2.8216    0.0000 H       1  UNL1        0.0236
     24 H           7.6648   -2.5946    0.0000 H       1  UNL1        0.0236
     25 H           7.4379   -1.7477    0.0000 H       1  UNL1        0.0236
     26 H           7.7052   -0.5940    0.0000 H       1  UNL1        0.0657
     27 H           4.8393    1.0607    0.0000 H       1  UNL1        0.0627
     28 H           3.8623    0.6632    0.0000 H       1  UNL1        0.0280
     29 H           3.0803    1.0600    0.0000 H       1  UNL1        0.0280
     30 H           2.6836    0.2780    0.0000 H       1  UNL1        0.0280
     31 H           6.8940    2.2870    0.0000 H       1  UNL1        0.0279
     32 H           6.2716    2.9046    0.0000 H       1  UNL1        0.0279
     33 H           5.6540    2.2822    0.0000 H       1  UNL1        0.0279
     34 H           8.5836    0.9484    0.0000 H       1  UNL1        0.2921
@<TRIPOS>BOND
     1     1     5    1
     2     1    14    1
     3     2    14    2
     4     3    16    1
     5     3    34    1
     6     4     6    1
     7     4     8    1
     8     4    11    1
     9     4    19    1
    10     5     6    1
    11     5     7    1
    12     5    20    1
    13     6    21    1
    14     6    22    1
    15     7     9    1
    16     7    10    2
    17     8     9   ar
    18     8    12   ar
    19     9    13   ar
    20    10    14    1
    21    10    17    1
    22    11    23    1
    23    11    24    1
    24    11    25    1
    25    12    16   ar
    26    12    26    1
    27    13    15   ar
    28    13    27    1
    29    15    16   ar
    30    15    18    1
    31    17    28    1
    32    17    29    1
    33    17    30    1
    34    18    31    1
    35    18    32    1
    36    18    33    1
