@<TRIPOS>MOLECULE
IMPHY007384
 27 27 0 0 0
SMALL
GASTEIGER

@<TRIPOS>ATOM
      1 O           4.5000    0.6729    0.0000 O.3     1  UNL1       -0.3821
      2 O           4.8660    3.0390    0.0000 O.co2   1  UNL1       -0.5468
      3 O           5.7320    1.5390    0.0000 O.co2   1  UNL1       -0.5468
      4 O           2.0000    3.2710    0.0000 O.co2   1  UNL1       -0.5497
      5 O           2.0000    1.5390    0.0000 O.co2   1  UNL1       -0.5497
      6 O           3.1340   -2.9610    0.0000 O.3     1  UNL1       -0.5068
      7 C           4.0000    1.5390    0.0000 C.3     1  UNL1        0.1139
      8 C           3.1340    1.0390    0.0000 C.3     1  UNL1        0.0069
      9 C           3.5000    2.4050    0.0000 C.3     1  UNL1        0.0213
     10 C           3.1340    0.0390    0.0000 C.ar    1  UNL1       -0.0441
     11 C           4.8660    2.0390    0.0000 C.2     1  UNL1        0.0738
     12 C           4.0000   -0.4610    0.0000 C.ar    1  UNL1       -0.0550
     13 C           2.2680   -0.4610    0.0000 C.ar    1  UNL1       -0.0550
     14 C           2.5000    2.4050    0.0000 C.2     1  UNL1        0.0448
     15 C           4.0000   -1.4610    0.0000 C.ar    1  UNL1       -0.0199
     16 C           2.2680   -1.4610    0.0000 C.ar    1  UNL1       -0.0199
     17 C           3.1340   -1.9610    0.0000 C.ar    1  UNL1        0.1169
     18 H           2.9219    1.6216    0.0000 H       1  UNL1        0.0345
     19 H           2.5234    0.9313    0.0000 H       1  UNL1        0.0345
     20 H           4.0826    2.6170    0.0000 H       1  UNL1        0.0357
     21 H           3.3923    3.0156    0.0000 H       1  UNL1        0.0357
     22 H           4.5369   -0.1510    0.0000 H       1  UNL1        0.0621
     23 H           1.7310   -0.1510    0.0000 H       1  UNL1        0.0621
     24 H           5.1200    0.6729    0.0000 H       1  UNL1        0.2107
     25 H           4.5369   -1.7710    0.0000 H       1  UNL1        0.0654
     26 H           1.7310   -1.7710    0.0000 H       1  UNL1        0.0654
     27 H           2.5970   -3.2710    0.0000 H       1  UNL1        0.2921
@<TRIPOS>UNITY_ATOM_ATTR
2 1
charge -1
4 1
charge -1
@<TRIPOS>BOND
     1     7     1    1
     2     1    24    1
     3     2    11   ar
     4     3    11   ar
     5     4    14   ar
     6     5    14   ar
     7     6    17    1
     8     6    27    1
     9     7     8    1
    10     7     9    1
    11     7    11    1
    12     8    10    1
    13     8    18    1
    14     8    19    1
    15     9    14    1
    16     9    20    1
    17     9    21    1
    18    10    12   ar
    19    10    13   ar
    20    12    15   ar
    21    12    22    1
    22    13    16   ar
    23    13    23    1
    24    15    17   ar
    25    15    25    1
    26    16    17   ar
    27    16    26    1
