@<TRIPOS>MOLECULE
IMPHY001481
 67 69 0 0 0
SMALL
GASTEIGER

@<TRIPOS>ATOM
      1 O           8.1301   -2.4272    0.0000 O.2     1  UNL1       -0.4589
      2 O          11.6602   -0.4030    0.0000 O.2     1  UNL1       -0.2964
      3 O           7.7881    0.5125    0.0000 O.2     1  UNL1       -0.2866
      4 O           6.3817    0.6074    0.0000 O.3     1  UNL1       -0.5055
      5 O           4.6000   -2.4513    0.0000 O.3     1  UNL1       -0.5062
      6 C           9.8901   -0.3925    0.0000 C.3     1  UNL1        0.0674
      7 C           8.9961   -0.9272    0.0000 C.ar    1  UNL1        0.0519
      8 C          10.7961   -0.9064    0.0000 C.2     1  UNL1        0.1450
      9 C          10.3800    0.4792    0.0000 C.3     1  UNL1       -0.0176
     10 C           9.3801    0.4677    0.0000 C.3     1  UNL1       -0.0176
     11 C          10.7961   -1.9480    0.0000 C.3     1  UNL1        0.0136
     12 C           8.9961   -1.9272    0.0000 C.ar    1  UNL1        0.1138
     13 C           9.8901   -2.4618    0.0000 C.3     1  UNL1        0.0126
     14 C           8.1301   -0.4272    0.0000 C.ar    1  UNL1        0.2004
     15 C           7.2641   -0.9272    0.0000 C.ar    1  UNL1        0.1060
     16 C           9.8701    1.3394    0.0000 C.2     1  UNL1       -0.0840
     17 C           8.4365    0.7989    0.0000 C.2     1  UNL1       -0.0840
     18 C           7.2641   -1.9272    0.0000 C.ar    1  UNL1        0.1458
     19 C           6.3701   -0.3925    0.0000 C.ar    1  UNL1        0.1381
     20 C           8.2515    1.7815    0.0000 C.2     1  UNL1       -0.0796
     21 C          10.3600    2.2112    0.0000 C.2     1  UNL1       -0.0796
     22 C           6.3701   -2.4618    0.0000 C.ar    1  UNL1        0.0234
     23 C           5.4641   -0.9064    0.0000 C.ar    1  UNL1        0.0400
     24 C           5.4641   -1.9480    0.0000 C.ar    1  UNL1        0.1273
     25 C           4.6000   -0.4030    0.0000 C.3     1  UNL1       -0.0023
     26 C          11.3599    2.2227    0.0000 C.3     1  UNL1       -0.0440
     27 C           9.8500    3.0713    0.0000 C.3     1  UNL1       -0.0440
     28 C           9.0100    2.4331    0.0000 C.3     1  UNL1       -0.0440
     29 C           7.3079    2.1126    0.0000 C.3     1  UNL1       -0.0440
     30 C           3.7320   -0.8997    0.0000 C.2     1  UNL1       -0.0807
     31 C           2.8680   -0.3964    0.0000 C.2     1  UNL1       -0.0793
     32 C           2.0000   -0.8930    0.0000 C.3     1  UNL1       -0.0440
     33 C           2.8718    0.6036    0.0000 C.3     1  UNL1       -0.0440
     34 H           9.9817    0.6176    0.0000 H       1  UNL1        0.0320
     35 H           9.4090    1.0870    0.0000 H       1  UNL1        0.0320
     36 H          10.8596    0.0862    0.0000 H       1  UNL1        0.0320
     37 H          10.8503    0.8832    0.0000 H       1  UNL1        0.0320
     38 H          11.0052   -2.5317    0.0000 H       1  UNL1        0.0346
     39 H          11.4070   -1.8419    0.0000 H       1  UNL1        0.0346
     40 H           9.4855   -2.9316    0.0000 H       1  UNL1        0.0348
     41 H          10.2837   -2.9409    0.0000 H       1  UNL1        0.0348
     42 H           9.2501    1.3322    0.0000 H       1  UNL1        0.0572
     43 H           7.9662    0.3949    0.0000 H       1  UNL1        0.0572
     44 H           6.3773   -3.0818    0.0000 H       1  UNL1        0.0691
     45 H           5.0003    0.0704    0.0000 H       1  UNL1        0.0358
     46 H           4.2033    0.0734    0.0000 H       1  UNL1        0.0358
     47 H           7.5132    2.6977    0.0000 H       1  UNL1        0.0274
     48 H           6.7229    2.3180    0.0000 H       1  UNL1        0.0274
     49 H           7.1026    1.5276    0.0000 H       1  UNL1        0.0274
     50 H           9.4140    1.9628    0.0000 H       1  UNL1        0.0274
     51 H           9.4804    2.8371    0.0000 H       1  UNL1        0.0274
     52 H           8.6060    2.9034    0.0000 H       1  UNL1        0.0274
     53 H          10.3833    3.3875    0.0000 H       1  UNL1        0.0274
     54 H           9.5338    3.6046    0.0000 H       1  UNL1        0.0274
     55 H           9.3167    2.7552    0.0000 H       1  UNL1        0.0274
     56 H          11.3671    1.6028    0.0000 H       1  UNL1        0.0274
     57 H          11.9799    2.2299    0.0000 H       1  UNL1        0.0274
     58 H          11.3528    2.8427    0.0000 H       1  UNL1        0.0274
     59 H           5.8484    0.9236    0.0000 H       1  UNL1        0.2922
     60 H           3.7296   -1.5197    0.0000 H       1  UNL1        0.0575
     61 H           4.6024   -3.0713    0.0000 H       1  UNL1        0.2921
     62 H           3.4918    0.6012    0.0000 H       1  UNL1        0.0274
     63 H           1.6921   -0.3549    0.0000 H       1  UNL1        0.0274
     64 H           1.4619   -1.2010    0.0000 H       1  UNL1        0.0274
     65 H           2.3079   -1.4312    0.0000 H       1  UNL1        0.0274
     66 H           2.8742    1.2236    0.0000 H       1  UNL1        0.0274
     67 H           2.2518    0.6060    0.0000 H       1  UNL1        0.0274
@<TRIPOS>BOND
     1     1    12   ar
     2     1    18   ar
     3     2     8    2
     4     3    14    2
     5     4    19    1
     6     4    59    1
     7     5    24    1
     8     5    61    1
     9     6     7    1
    10     6     8    1
    11     6     9    1
    12     6    10    1
    13     7    12   ar
    14     7    14   ar
    15     8    11    1
    16     9    16    1
    17     9    36    1
    18     9    37    1
    19    10    17    1
    20    10    34    1
    21    10    35    1
    22    11    13    1
    23    11    38    1
    24    11    39    1
    25    12    13    1
    26    13    40    1
    27    13    41    1
    28    14    15   ar
    29    15    18   ar
    30    15    19   ar
    31    16    21    2
    32    16    42    1
    33    17    20    2
    34    17    43    1
    35    18    22   ar
    36    19    23   ar
    37    20    28    1
    38    20    29    1
    39    21    26    1
    40    21    27    1
    41    22    24   ar
    42    22    44    1
    43    23    24   ar
    44    23    25    1
    45    25    30    1
    46    25    45    1
    47    25    46    1
    48    26    56    1
    49    26    57    1
    50    26    58    1
    51    27    53    1
    52    27    54    1
    53    27    55    1
    54    28    50    1
    55    28    51    1
    56    28    52    1
    57    29    47    1
    58    29    48    1
    59    29    49    1
    60    30    31    2
    61    30    60    1
    62    31    32    1
    63    31    33    1
    64    32    63    1
    65    32    64    1
    66    32    65    1
    67    33    62    1
    68    33    66    1
    69    33    67    1
