@<TRIPOS>MOLECULE
IMPHY013477
 52 54 0 0 0
SMALL
GASTEIGER

@<TRIPOS>ATOM
      1 O           2.5369   -1.0731    0.0000 O.3     1  UNL1       -0.3947
      2 O           8.6651   -0.5489    0.0000 O.2     1  UNL1       -0.2927
      3 O           3.4326    3.1077    0.0000 O.3     1  UNL1       -0.4572
      4 O           2.9714    1.3864    0.0000 O.2     1  UNL1       -0.2453
      5 C           5.1350   -0.5731    0.0000 C.3     1  UNL1       -0.0229
      6 C           6.0010   -1.0731    0.0000 C.3     1  UNL1       -0.0192
      7 C           6.0010   -2.0731    0.0000 C.3     1  UNL1       -0.0072
      8 C           4.2690   -1.0731    0.0000 C.3     1  UNL1       -0.0121
      9 C           5.1350   -2.5731    0.0000 C.3     1  UNL1       -0.0433
     10 C           4.2690   -2.0731    0.0000 C.3     1  UNL1       -0.0468
     11 C           4.6350    0.2929    0.0000 C.3     1  UNL1       -0.0428
     12 C           6.8950   -0.5384    0.0000 C.3     1  UNL1        0.0140
     13 C           6.8950   -2.6077    0.0000 C.2     1  UNL1       -0.0631
     14 C           5.6350    0.2929    0.0000 C.3     1  UNL1       -0.0589
     15 C           6.0010   -3.0731    0.0000 C.3     1  UNL1       -0.0556
     16 C           3.4030   -0.5731    0.0000 C.3     1  UNL1        0.0475
     17 C           7.8010   -1.0523    0.0000 C.2     1  UNL1        0.1564
     18 C           5.1350    1.1590    0.0000 C.3     1  UNL1       -0.0206
     19 C           7.8010   -2.0939    0.0000 C.2     1  UNL1       -0.0197
     20 C           6.8834   -3.6077    0.0000 C.3     1  UNL1       -0.0429
     21 C           4.6350    2.0250    0.0000 C.2     1  UNL1        0.0359
     22 C           5.0418    2.9385    0.0000 C.2     1  UNL1       -0.0371
     23 C           3.6405    2.1295    0.0000 C.2     1  UNL1        0.3352
     24 C           4.2986    3.6077    0.0000 C.3     1  UNL1        0.1118
     25 H           5.9945   -0.2231    0.0000 H       1  UNL1        0.0319
     26 H           4.2690   -0.4531    0.0000 H       1  UNL1        0.0328
     27 H           4.7365   -3.0480    0.0000 H       1  UNL1        0.0274
     28 H           5.5335   -3.0480    0.0000 H       1  UNL1        0.0274
     29 H           3.6584   -1.9654    0.0000 H       1  UNL1        0.0269
     30 H           4.0569   -2.6557    0.0000 H       1  UNL1        0.0269
     31 H           4.1601    0.6915    0.0000 H       1  UNL1        0.0274
     32 H           4.1601   -0.1056    0.0000 H       1  UNL1        0.0274
     33 H           7.2886   -0.0594    0.0000 H       1  UNL1        0.0348
     34 H           6.4904   -0.0686    0.0000 H       1  UNL1        0.0348
     35 H           6.1720   -0.0171    0.0000 H       1  UNL1        0.0235
     36 H           5.9450    0.8299    0.0000 H       1  UNL1        0.0235
     37 H           5.0981    0.6029    0.0000 H       1  UNL1        0.0235
     38 H           5.3810   -3.0731    0.0000 H       1  UNL1        0.0238
     39 H           6.0010   -3.6931    0.0000 H       1  UNL1        0.0238
     40 H           6.6210   -3.0731    0.0000 H       1  UNL1        0.0238
     41 H           3.8015   -0.0981    0.0000 H       1  UNL1        0.0560
     42 H           3.0044   -0.0981    0.0000 H       1  UNL1        0.0560
     43 H           5.6100    0.7604    0.0000 H       1  UNL1        0.0315
     44 H           5.6100    1.5575    0.0000 H       1  UNL1        0.0315
     45 H           8.3368   -2.4060    0.0000 H       1  UNL1        0.0652
     46 H           6.2635   -3.6005    0.0000 H       1  UNL1        0.0275
     47 H           6.8762   -4.2276    0.0000 H       1  UNL1        0.0275
     48 H           7.5034   -3.6148    0.0000 H       1  UNL1        0.0275
     49 H           2.0000   -0.7631    0.0000 H       1  UNL1        0.2094
     50 H           5.6482    3.0674    0.0000 H       1  UNL1        0.0610
     51 H           4.7594    4.0225    0.0000 H       1  UNL1        0.0743
     52 H           3.9342    4.1093    0.0000 H       1  UNL1        0.0743
@<TRIPOS>BOND
     1     1    16    1
     2     1    49    1
     3     2    17    2
     4     3    23    1
     5     3    24    1
     6     4    23    2
     7     5     6    1
     8     5     8    1
     9     5    11    1
    10     5    14    1
    11     6     7    1
    12     6    12    1
    13     6    25    1
    14     7     9    1
    15     7    13    1
    16     7    15    1
    17     8    10    1
    18     8    16    1
    19     8    26    1
    20     9    10    1
    21     9    27    1
    22     9    28    1
    23    10    29    1
    24    10    30    1
    25    11    18    1
    26    11    31    1
    27    11    32    1
    28    12    17    1
    29    12    33    1
    30    12    34    1
    31    13    19    2
    32    13    20    1
    33    14    35    1
    34    14    36    1
    35    14    37    1
    36    15    38    1
    37    15    39    1
    38    15    40    1
    39    16    41    1
    40    16    42    1
    41    17    19    1
    42    18    21    1
    43    18    43    1
    44    18    44    1
    45    19    45    1
    46    20    46    1
    47    20    47    1
    48    20    48    1
    49    21    22    2
    50    21    23    1
    51    22    24    1
    52    22    50    1
    53    24    51    1
    54    24    52    1
