@<TRIPOS>MOLECULE
IMPHY006870
 62 67 0 0 0
SMALL
GASTEIGER

@<TRIPOS>ATOM
      1 O           8.4059    0.1060    0.0000 O.3     1  UNL1       -0.3412
      2 O           7.8155    1.9090    0.0000 O.3     1  UNL1       -0.3191
      3 O           6.8671   -1.3940    0.0000 O.3     1  UNL1       -0.3385
      4 O           6.1267    2.8846    0.0000 O.3     1  UNL1       -0.3640
      5 O           6.0010    2.1060    0.0000 O.3     1  UNL1       -0.4603
      6 O           5.1350   -1.3940    0.0000 O.3     1  UNL1       -0.3405
      7 O           6.8671   -3.3940    0.0000 O.3     1  UNL1       -0.3841
      8 O           5.1350   -4.3940    0.0000 O.3     1  UNL1       -0.3864
      9 O           4.5011    1.2399    0.0000 O.2     1  UNL1       -0.2450
     10 O           3.4030   -3.3940    0.0000 O.3     1  UNL1       -0.3865
     11 O           2.5369   -1.8940    0.0000 O.3     1  UNL1       -0.3924
     12 C           6.8671    0.6060    0.0000 C.3     1  UNL1        0.0952
     13 C           6.8671   -0.3940    0.0000 C.3     1  UNL1        0.1156
     14 C           6.2848    1.4117    0.0000 C.3     1  UNL1        0.0320
     15 C           7.8181   -0.7031    0.0000 C.3     1  UNL1        0.1043
     16 C           6.2793    0.4132    0.0000 C.3     1  UNL1       -0.0115
     17 C           6.8698    2.2154    0.0000 C.3     1  UNL1        0.1767
     18 C           7.8181    0.9150    0.0000 C.3     1  UNL1        0.1750
     19 C           8.1865    1.0299    0.0000 C.3     1  UNL1        0.0333
     20 C           6.8671    1.6060    0.0000 C.3     1  UNL1        0.1062
     21 C           8.1271   -1.6541    0.0000 C.3     1  UNL1       -0.0328
     22 C           6.0010   -1.8940    0.0000 C.3     1  UNL1        0.1887
     23 C           6.0010   -2.8940    0.0000 C.3     1  UNL1        0.1341
     24 C           5.0010    2.1060    0.0000 C.2     1  UNL1        0.3392
     25 C           5.1350   -3.3940    0.0000 C.3     1  UNL1        0.1141
     26 C           4.2690   -1.8940    0.0000 C.3     1  UNL1        0.1130
     27 C           4.2690   -2.8940    0.0000 C.3     1  UNL1        0.1119
     28 C           4.5011    2.9721    0.0000 C.ar    1  UNL1        0.0590
     29 C           3.4030   -1.3940    0.0000 C.3     1  UNL1        0.0730
     30 C           5.0010    3.8380    0.0000 C.ar    1  UNL1       -0.0478
     31 C           3.5011    2.9721    0.0000 C.ar    1  UNL1       -0.0478
     32 C           4.5010    4.7040    0.0000 C.ar    1  UNL1       -0.0610
     33 C           3.0011    3.8381    0.0000 C.ar    1  UNL1       -0.0610
     34 C           3.5010    4.7040    0.0000 C.ar    1  UNL1       -0.0617
     35 H           5.5480    0.9880    0.0000 H       1  UNL1        0.0363
     36 H           5.6903    0.6068    0.0000 H       1  UNL1        0.0299
     37 H           5.9143   -0.0880    0.0000 H       1  UNL1        0.0299
     38 H           8.4075    1.1073    0.0000 H       1  UNL1        0.0919
     39 H           8.7613    0.7977    0.0000 H       1  UNL1        0.0346
     40 H           8.5150    1.5557    0.0000 H       1  UNL1        0.0346
     41 H           7.4776    1.4983    0.0000 H       1  UNL1        0.0706
     42 H           7.0791    2.1886    0.0000 H       1  UNL1        0.0706
     43 H           7.5375   -1.8457    0.0000 H       1  UNL1        0.0258
     44 H           8.3187   -2.2438    0.0000 H       1  UNL1        0.0258
     45 H           8.7168   -1.4625    0.0000 H       1  UNL1        0.0258
     46 H           6.2556    3.4910    0.0000 H       1  UNL1        0.2128
     47 H           6.0010   -1.2740    0.0000 H       1  UNL1        0.0938
     48 H           6.0010   -3.5140    0.0000 H       1  UNL1        0.0671
     49 H           4.5981   -3.7040    0.0000 H       1  UNL1        0.0648
     50 H           4.2690   -1.2740    0.0000 H       1  UNL1        0.0647
     51 H           3.7320   -2.5840    0.0000 H       1  UNL1        0.0647
     52 H           6.8671   -4.0140    0.0000 H       1  UNL1        0.2101
     53 H           3.8015   -0.9191    0.0000 H       1  UNL1        0.0584
     54 H           3.0044   -0.9191    0.0000 H       1  UNL1        0.0584
     55 H           4.5981   -4.7040    0.0000 H       1  UNL1        0.2100
     56 H           3.4030   -4.0140    0.0000 H       1  UNL1        0.2100
     57 H           5.6210    3.8380    0.0000 H       1  UNL1        0.0626
     58 H           3.1911    2.4351    0.0000 H       1  UNL1        0.0626
     59 H           2.0000   -1.5840    0.0000 H       1  UNL1        0.2095
     60 H           4.8110    5.2410    0.0000 H       1  UNL1        0.0618
     61 H           2.3811    3.8381    0.0000 H       1  UNL1        0.0618
     62 H           3.1910    5.2410    0.0000 H       1  UNL1        0.0618
@<TRIPOS>BOND
     1     1    15    1
     2     1    18    1
     3     2    17    1
     4     2    18    1
     5    13     3    1
     6    22     3    1
     7    17     4    1
     8     4    46    1
     9     5    20    1
    10     5    24    1
    11     6    22    1
    12     6    26    1
    13    23     7    1
    14     7    52    1
    15    25     8    1
    16     8    55    1
    17     9    24    2
    18    27    10    1
    19    10    56    1
    20    11    29    1
    21    11    59    1
    22    12    13    1
    23    12    14    1
    24    12    18    1
    25    12    20    1
    26    13    15    1
    27    13    16    1
    28    14    16    1
    29    14    17    1
    30    14    35    1
    31    15    19    1
    32    15    21    1
    33    16    36    1
    34    16    37    1
    35    17    19    1
    36    18    38    1
    37    19    39    1
    38    19    40    1
    39    20    41    1
    40    20    42    1
    41    21    43    1
    42    21    44    1
    43    21    45    1
    44    22    23    1
    45    22    47    1
    46    23    25    1
    47    23    48    1
    48    24    28    1
    49    25    27    1
    50    25    49    1
    51    26    27    1
    52    26    29    1
    53    26    50    1
    54    27    51    1
    55    28    30   ar
    56    28    31   ar
    57    29    53    1
    58    29    54    1
    59    30    32   ar
    60    30    57    1
    61    31    33   ar
    62    31    58    1
    63    32    34   ar
    64    32    60    1
    65    33    34   ar
    66    33    61    1
    67    34    62    1
