@<TRIPOS>MOLECULE
IMPHY013716
 39 41 0 0 0
SMALL
GASTEIGER

@<TRIPOS>ATOM
      1 CL          7.5533    0.8607    0.0000 Cl      1  UNL1       -0.1219
      2 O           5.6146   -1.4994    0.0000 O.3     1  UNL1       -0.4586
      3 O           7.9445   -1.2764    0.0000 O.3     1  UNL1       -0.3761
      4 O           2.0000   -0.1562    0.0000 O.2     1  UNL1       -0.2971
      5 O           7.0268   -2.5770    0.0000 O.2     1  UNL1       -0.2475
      6 C           4.5777   -0.0807    0.0000 C.3     1  UNL1        0.0126
      7 C           5.4786   -0.5146    0.0000 C.3     1  UNL1        0.1131
      8 C           6.3796   -0.0807    0.0000 C.3     1  UNL1        0.0371
      9 C           4.3551    0.8942    0.0000 C.3     1  UNL1       -0.0067
     10 C           3.7230   -0.5884    0.0000 C.3     1  UNL1        0.0214
     11 C           7.0647   -0.8010    0.0000 C.3     1  UNL1        0.1816
     12 C           6.6021    0.8942    0.0000 C.3     1  UNL1       -0.0399
     13 C           3.3648    0.9807    0.0000 C.3     1  UNL1        0.0130
     14 C           4.9786    1.6760    0.0000 C.2     1  UNL1       -0.0727
     15 C           5.9786    1.6760    0.0000 C.3     1  UNL1       -0.0312
     16 C           2.9749    0.0663    0.0000 C.2     1  UNL1        0.1371
     17 C           6.5929   -1.6760    0.0000 C.2     1  UNL1        0.3410
     18 C           3.6316   -1.5842    0.0000 C.3     1  UNL1       -0.0553
     19 C           7.7887   -0.1112    0.0000 C.3     1  UNL1        0.0623
     20 C           4.5447    2.5770    0.0000 C.2     1  UNL1       -0.0992
     21 H           4.6047   -0.7002    0.0000 H       1  UNL1        0.0349
     22 H           4.9775   -0.8797    0.0000 H       1  UNL1        0.0741
     23 H           6.9775    0.0834    0.0000 H       1  UNL1        0.0371
     24 H           4.1107    1.4640    0.0000 H       1  UNL1        0.0354
     25 H           4.2472   -0.9194    0.0000 H       1  UNL1        0.0379
     26 H           7.1607    0.6252    0.0000 H       1  UNL1        0.0273
     27 H           6.9887    1.3789    0.0000 H       1  UNL1        0.0273
     28 H           3.4834    1.5893    0.0000 H       1  UNL1        0.0348
     29 H           2.7721    1.1626    0.0000 H       1  UNL1        0.0348
     30 H           6.5372    1.9450    0.0000 H       1  UNL1        0.0310
     31 H           5.8407    2.2805    0.0000 H       1  UNL1        0.0310
     32 H           3.0142   -1.5276    0.0000 H       1  UNL1        0.0237
     33 H           3.5750   -2.2016    0.0000 H       1  UNL1        0.0237
     34 H           4.2490   -1.6408    0.0000 H       1  UNL1        0.0237
     35 H           8.1319   -0.6276    0.0000 H       1  UNL1        0.0464
     36 H           8.3568    0.1371    0.0000 H       1  UNL1        0.0464
     37 H           8.4725   -0.9514    0.0000 H       1  UNL1        0.2110
     38 H           4.8940    3.0892    0.0000 H       1  UNL1        0.0534
     39 H           3.9265    2.6233    0.0000 H       1  UNL1        0.0534
@<TRIPOS>BOND
     1     1    19    1
     2     2     7    1
     3     2    17    1
     4     3    11    1
     5     3    37    1
     6     4    16    2
     7     5    17    2
     8     6     7    1
     9     6     9    1
    10     6    10    1
    11     6    21    1
    12     7     8    1
    13     7    22    1
    14     8    11    1
    15     8    12    1
    16     8    23    1
    17     9    13    1
    18     9    14    1
    19     9    24    1
    20    10    16    1
    21    10    18    1
    22    10    25    1
    23    11    17    1
    24    11    19    1
    25    12    15    1
    26    12    26    1
    27    12    27    1
    28    13    16    1
    29    13    28    1
    30    13    29    1
    31    14    15    1
    32    14    20    2
    33    15    30    1
    34    15    31    1
    35    18    32    1
    36    18    33    1
    37    18    34    1
    38    19    35    1
    39    19    36    1
    40    20    38    1
    41    20    39    1
