@<TRIPOS>MOLECULE
IMPHY015864
 209 208 0 0 0
SMALL
GASTEIGER

@<TRIPOS>ATOM
      1 O           2.5369    0.7500    0.0000 O.3     1  UNL1       -0.4806
      2 O           3.4030   -0.7500    0.0000 O.2     1  UNL1       -0.2510
      3 C          32.8478    0.2500    0.0000 C.3     1  UNL1       -0.0531
      4 C          33.7139    0.7500    0.0000 C.3     1  UNL1       -0.0531
      5 C          31.9818    0.7500    0.0000 C.3     1  UNL1       -0.0531
      6 C          34.5799    0.2500    0.0000 C.3     1  UNL1       -0.0531
      7 C          31.1158    0.2500    0.0000 C.3     1  UNL1       -0.0531
      8 C          35.4459    0.7500    0.0000 C.3     1  UNL1       -0.0531
      9 C          30.2497    0.7500    0.0000 C.3     1  UNL1       -0.0531
     10 C          36.3119    0.2500    0.0000 C.3     1  UNL1       -0.0531
     11 C          29.3837    0.2500    0.0000 C.3     1  UNL1       -0.0531
     12 C          37.1780    0.7500    0.0000 C.3     1  UNL1       -0.0531
     13 C          28.5177    0.7500    0.0000 C.3     1  UNL1       -0.0531
     14 C          38.0440    0.2500    0.0000 C.3     1  UNL1       -0.0531
     15 C          27.6517    0.2500    0.0000 C.3     1  UNL1       -0.0531
     16 C          38.9100    0.7500    0.0000 C.3     1  UNL1       -0.0531
     17 C          26.7856    0.7500    0.0000 C.3     1  UNL1       -0.0531
     18 C          39.7760    0.2500    0.0000 C.3     1  UNL1       -0.0531
     19 C          25.9196    0.2500    0.0000 C.3     1  UNL1       -0.0531
     20 C          40.6421    0.7500    0.0000 C.3     1  UNL1       -0.0531
     21 C          25.0536    0.7500    0.0000 C.3     1  UNL1       -0.0531
     22 C          41.5081    0.2500    0.0000 C.3     1  UNL1       -0.0531
     23 C          24.1876    0.2500    0.0000 C.3     1  UNL1       -0.0531
     24 C          42.3741    0.7500    0.0000 C.3     1  UNL1       -0.0531
     25 C          23.3215    0.7500    0.0000 C.3     1  UNL1       -0.0531
     26 C          43.2401    0.2500    0.0000 C.3     1  UNL1       -0.0531
     27 C          22.4555    0.2500    0.0000 C.3     1  UNL1       -0.0531
     28 C          44.1062    0.7500    0.0000 C.3     1  UNL1       -0.0531
     29 C          21.5895    0.7500    0.0000 C.3     1  UNL1       -0.0531
     30 C          44.9722    0.2500    0.0000 C.3     1  UNL1       -0.0531
     31 C          20.7235    0.2500    0.0000 C.3     1  UNL1       -0.0531
     32 C          45.8382    0.7500    0.0000 C.3     1  UNL1       -0.0531
     33 C          19.8574    0.7500    0.0000 C.3     1  UNL1       -0.0531
     34 C          46.7042    0.2500    0.0000 C.3     1  UNL1       -0.0531
     35 C          18.9914    0.2500    0.0000 C.3     1  UNL1       -0.0531
     36 C          47.5703    0.7500    0.0000 C.3     1  UNL1       -0.0531
     37 C          18.1254    0.7500    0.0000 C.3     1  UNL1       -0.0531
     38 C          48.4363    0.2500    0.0000 C.3     1  UNL1       -0.0531
     39 C          17.2594    0.2500    0.0000 C.3     1  UNL1       -0.0531
     40 C          49.3023    0.7500    0.0000 C.3     1  UNL1       -0.0531
     41 C          16.3933    0.7500    0.0000 C.3     1  UNL1       -0.0531
     42 C          50.1683    0.2500    0.0000 C.3     1  UNL1       -0.0531
     43 C          15.5273    0.2500    0.0000 C.3     1  UNL1       -0.0531
     44 C          51.0344    0.7500    0.0000 C.3     1  UNL1       -0.0531
     45 C          14.6613    0.7500    0.0000 C.3     1  UNL1       -0.0531
     46 C          51.9004    0.2500    0.0000 C.3     1  UNL1       -0.0531
     47 C          13.7953    0.2500    0.0000 C.3     1  UNL1       -0.0531
     48 C          52.7664    0.7500    0.0000 C.3     1  UNL1       -0.0531
     49 C          12.9292    0.7500    0.0000 C.3     1  UNL1       -0.0531
     50 C          53.6324    0.2500    0.0000 C.3     1  UNL1       -0.0531
     51 C          12.0632    0.2500    0.0000 C.3     1  UNL1       -0.0531
     52 C          54.4985    0.7500    0.0000 C.3     1  UNL1       -0.0531
     53 C          11.1972    0.7500    0.0000 C.3     1  UNL1       -0.0531
     54 C          55.3645    0.2500    0.0000 C.3     1  UNL1       -0.0531
     55 C          10.3312    0.2500    0.0000 C.3     1  UNL1       -0.0531
     56 C          56.2305    0.7500    0.0000 C.3     1  UNL1       -0.0531
     57 C           9.4651    0.7500    0.0000 C.3     1  UNL1       -0.0531
     58 C          57.0965    0.2500    0.0000 C.3     1  UNL1       -0.0531
     59 C           8.5991    0.2500    0.0000 C.3     1  UNL1       -0.0531
     60 C          57.9626    0.7500    0.0000 C.3     1  UNL1       -0.0531
     61 C           7.7331    0.7500    0.0000 C.3     1  UNL1       -0.0531
     62 C          58.8286    0.2500    0.0000 C.3     1  UNL1       -0.0531
     63 C           6.8671    0.2500    0.0000 C.3     1  UNL1       -0.0530
     64 C          59.6946    0.7500    0.0000 C.3     1  UNL1       -0.0531
     65 C           6.0010    0.7500    0.0000 C.3     1  UNL1       -0.0526
     66 C          60.5606    0.2500    0.0000 C.3     1  UNL1       -0.0533
     67 C           5.1350    0.2500    0.0000 C.3     1  UNL1       -0.0430
     68 C          61.4267    0.7500    0.0000 C.3     1  UNL1       -0.0559
     69 C           4.2690    0.7500    0.0000 C.3     1  UNL1        0.0448
     70 C          62.2927    0.2500    0.0000 C.3     1  UNL1       -0.0653
     71 C           3.4030    0.2500    0.0000 C.2     1  UNL1        0.3047
     72 H          32.4493   -0.2249    0.0000 H       1  UNL1        0.0265
     73 H          33.2464   -0.2249    0.0000 H       1  UNL1        0.0265
     74 H          34.1124    1.2250    0.0000 H       1  UNL1        0.0265
     75 H          33.3153    1.2250    0.0000 H       1  UNL1        0.0265
     76 H          32.3803    1.2250    0.0000 H       1  UNL1        0.0265
     77 H          31.5833    1.2250    0.0000 H       1  UNL1        0.0265
     78 H          34.1813   -0.2249    0.0000 H       1  UNL1        0.0265
     79 H          34.9784   -0.2249    0.0000 H       1  UNL1        0.0265
     80 H          30.7172   -0.2249    0.0000 H       1  UNL1        0.0265
     81 H          31.5143   -0.2249    0.0000 H       1  UNL1        0.0265
     82 H          35.8444    1.2250    0.0000 H       1  UNL1        0.0265
     83 H          35.0474    1.2250    0.0000 H       1  UNL1        0.0265
     84 H          30.6483    1.2250    0.0000 H       1  UNL1        0.0265
     85 H          29.8512    1.2250    0.0000 H       1  UNL1        0.0265
     86 H          35.9134   -0.2249    0.0000 H       1  UNL1        0.0265
     87 H          36.7105   -0.2249    0.0000 H       1  UNL1        0.0265
     88 H          28.9852   -0.2249    0.0000 H       1  UNL1        0.0265
     89 H          29.7823   -0.2249    0.0000 H       1  UNL1        0.0265
     90 H          37.5765    1.2250    0.0000 H       1  UNL1        0.0265
     91 H          36.7794    1.2250    0.0000 H       1  UNL1        0.0265
     92 H          28.9162    1.2250    0.0000 H       1  UNL1        0.0265
     93 H          28.1192    1.2250    0.0000 H       1  UNL1        0.0265
     94 H          37.6454   -0.2249    0.0000 H       1  UNL1        0.0265
     95 H          38.4425   -0.2249    0.0000 H       1  UNL1        0.0265
     96 H          27.2531   -0.2249    0.0000 H       1  UNL1        0.0265
     97 H          28.0502   -0.2249    0.0000 H       1  UNL1        0.0265
     98 H          39.3085    1.2250    0.0000 H       1  UNL1        0.0265
     99 H          38.5115    1.2250    0.0000 H       1  UNL1        0.0265
    100 H          27.1842    1.2250    0.0000 H       1  UNL1        0.0265
    101 H          26.3871    1.2250    0.0000 H       1  UNL1        0.0265
    102 H          39.3775   -0.2249    0.0000 H       1  UNL1        0.0265
    103 H          40.1746   -0.2249    0.0000 H       1  UNL1        0.0265
    104 H          25.5211   -0.2249    0.0000 H       1  UNL1        0.0265
    105 H          26.3182   -0.2249    0.0000 H       1  UNL1        0.0265
    106 H          41.0406    1.2250    0.0000 H       1  UNL1        0.0265
    107 H          40.2435    1.2250    0.0000 H       1  UNL1        0.0265
    108 H          25.4521    1.2250    0.0000 H       1  UNL1        0.0265
    109 H          24.6551    1.2250    0.0000 H       1  UNL1        0.0265
    110 H          41.1096   -0.2249    0.0000 H       1  UNL1        0.0265
    111 H          41.9066   -0.2249    0.0000 H       1  UNL1        0.0265
    112 H          23.7890   -0.2249    0.0000 H       1  UNL1        0.0265
    113 H          24.5861   -0.2249    0.0000 H       1  UNL1        0.0265
    114 H          42.7726    1.2250    0.0000 H       1  UNL1        0.0265
    115 H          41.9756    1.2250    0.0000 H       1  UNL1        0.0265
    116 H          23.7201    1.2250    0.0000 H       1  UNL1        0.0265
    117 H          22.9230    1.2250    0.0000 H       1  UNL1        0.0265
    118 H          42.8416   -0.2249    0.0000 H       1  UNL1        0.0265
    119 H          43.6387   -0.2249    0.0000 H       1  UNL1        0.0265
    120 H          22.0570   -0.2249    0.0000 H       1  UNL1        0.0265
    121 H          22.8540   -0.2249    0.0000 H       1  UNL1        0.0265
    122 H          44.5047    1.2250    0.0000 H       1  UNL1        0.0265
    123 H          43.7076    1.2250    0.0000 H       1  UNL1        0.0265
    124 H          21.9880    1.2250    0.0000 H       1  UNL1        0.0265
    125 H          21.1910    1.2250    0.0000 H       1  UNL1        0.0265
    126 H          44.5737   -0.2249    0.0000 H       1  UNL1        0.0265
    127 H          45.3707   -0.2249    0.0000 H       1  UNL1        0.0265
    128 H          20.3249   -0.2249    0.0000 H       1  UNL1        0.0265
    129 H          21.1220   -0.2249    0.0000 H       1  UNL1        0.0265
    130 H          46.2367    1.2250    0.0000 H       1  UNL1        0.0265
    131 H          45.4397    1.2250    0.0000 H       1  UNL1        0.0265
    132 H          20.2560    1.2250    0.0000 H       1  UNL1        0.0265
    133 H          19.4589    1.2250    0.0000 H       1  UNL1        0.0265
    134 H          46.3057   -0.2249    0.0000 H       1  UNL1        0.0265
    135 H          47.1028   -0.2249    0.0000 H       1  UNL1        0.0265
    136 H          18.5929   -0.2249    0.0000 H       1  UNL1        0.0265
    137 H          19.3899   -0.2249    0.0000 H       1  UNL1        0.0265
    138 H          47.9688    1.2250    0.0000 H       1  UNL1        0.0265
    139 H          47.1717    1.2250    0.0000 H       1  UNL1        0.0265
    140 H          18.5239    1.2250    0.0000 H       1  UNL1        0.0265
    141 H          17.7269    1.2250    0.0000 H       1  UNL1        0.0265
    142 H          48.0378   -0.2249    0.0000 H       1  UNL1        0.0265
    143 H          48.8348   -0.2249    0.0000 H       1  UNL1        0.0265
    144 H          16.8608   -0.2249    0.0000 H       1  UNL1        0.0265
    145 H          17.6579   -0.2249    0.0000 H       1  UNL1        0.0265
    146 H          49.7008    1.2250    0.0000 H       1  UNL1        0.0265
    147 H          48.9038    1.2250    0.0000 H       1  UNL1        0.0265
    148 H          16.7919    1.2250    0.0000 H       1  UNL1        0.0265
    149 H          15.9948    1.2250    0.0000 H       1  UNL1        0.0265
    150 H          49.7698   -0.2249    0.0000 H       1  UNL1        0.0265
    151 H          50.5669   -0.2249    0.0000 H       1  UNL1        0.0265
    152 H          15.1288   -0.2249    0.0000 H       1  UNL1        0.0265
    153 H          15.9258   -0.2249    0.0000 H       1  UNL1        0.0265
    154 H          51.4329    1.2250    0.0000 H       1  UNL1        0.0265
    155 H          50.6358    1.2250    0.0000 H       1  UNL1        0.0265
    156 H          15.0598    1.2250    0.0000 H       1  UNL1        0.0265
    157 H          14.2628    1.2250    0.0000 H       1  UNL1        0.0265
    158 H          51.5019   -0.2249    0.0000 H       1  UNL1        0.0265
    159 H          52.2989   -0.2249    0.0000 H       1  UNL1        0.0265
    160 H          13.3967   -0.2249    0.0000 H       1  UNL1        0.0265
    161 H          14.1938   -0.2249    0.0000 H       1  UNL1        0.0265
    162 H          53.1649    1.2250    0.0000 H       1  UNL1        0.0265
    163 H          52.3679    1.2250    0.0000 H       1  UNL1        0.0265
    164 H          13.3278    1.2250    0.0000 H       1  UNL1        0.0265
    165 H          12.5307    1.2250    0.0000 H       1  UNL1        0.0265
    166 H          53.2339   -0.2249    0.0000 H       1  UNL1        0.0265
    167 H          54.0310   -0.2249    0.0000 H       1  UNL1        0.0265
    168 H          11.6647   -0.2249    0.0000 H       1  UNL1        0.0265
    169 H          12.4617   -0.2249    0.0000 H       1  UNL1        0.0265
    170 H          54.8970    1.2250    0.0000 H       1  UNL1        0.0265
    171 H          54.0999    1.2250    0.0000 H       1  UNL1        0.0265
    172 H          11.5957    1.2250    0.0000 H       1  UNL1        0.0265
    173 H          10.7987    1.2250    0.0000 H       1  UNL1        0.0265
    174 H          54.9660   -0.2249    0.0000 H       1  UNL1        0.0265
    175 H          55.7630   -0.2249    0.0000 H       1  UNL1        0.0265
    176 H           9.9326   -0.2249    0.0000 H       1  UNL1        0.0265
    177 H          10.7297   -0.2249    0.0000 H       1  UNL1        0.0265
    178 H          56.6290    1.2250    0.0000 H       1  UNL1        0.0265
    179 H          55.8320    1.2250    0.0000 H       1  UNL1        0.0265
    180 H           9.8637    1.2250    0.0000 H       1  UNL1        0.0265
    181 H           9.0666    1.2250    0.0000 H       1  UNL1        0.0265
    182 H          56.6980   -0.2249    0.0000 H       1  UNL1        0.0265
    183 H          57.4951   -0.2249    0.0000 H       1  UNL1        0.0265
    184 H           8.2006   -0.2249    0.0000 H       1  UNL1        0.0265
    185 H           8.9976   -0.2249    0.0000 H       1  UNL1        0.0265
    186 H          58.3611    1.2250    0.0000 H       1  UNL1        0.0265
    187 H          57.5640    1.2250    0.0000 H       1  UNL1        0.0265
    188 H           8.1316    1.2250    0.0000 H       1  UNL1        0.0265
    189 H           7.3346    1.2250    0.0000 H       1  UNL1        0.0265
    190 H          58.4301   -0.2249    0.0000 H       1  UNL1        0.0265
    191 H          59.2271   -0.2249    0.0000 H       1  UNL1        0.0265
    192 H           6.4685   -0.2249    0.0000 H       1  UNL1        0.0265
    193 H           7.2656   -0.2249    0.0000 H       1  UNL1        0.0265
    194 H          60.0931    1.2250    0.0000 H       1  UNL1        0.0265
    195 H          59.2961    1.2250    0.0000 H       1  UNL1        0.0265
    196 H           6.3996    1.2250    0.0000 H       1  UNL1        0.0265
    197 H           5.6025    1.2250    0.0000 H       1  UNL1        0.0265
    198 H          60.1621   -0.2249    0.0000 H       1  UNL1        0.0265
    199 H          60.9592   -0.2249    0.0000 H       1  UNL1        0.0265
    200 H           4.7365   -0.2249    0.0000 H       1  UNL1        0.0270
    201 H           5.5335   -0.2249    0.0000 H       1  UNL1        0.0270
    202 H          61.8252    1.2250    0.0000 H       1  UNL1        0.0263
    203 H          61.0281    1.2250    0.0000 H       1  UNL1        0.0263
    204 H           4.6675    1.2250    0.0000 H       1  UNL1        0.0377
    205 H           3.8705    1.2250    0.0000 H       1  UNL1        0.0377
    206 H          61.9827   -0.2869    0.0000 H       1  UNL1        0.0230
    207 H          62.8296   -0.0600    0.0000 H       1  UNL1        0.0230
    208 H          62.6027    0.7869    0.0000 H       1  UNL1        0.0230
    209 H           2.0000    0.4400    0.0000 H       1  UNL1        0.2951
@<TRIPOS>BOND
     1     1    71    1
     2     1   209    1
     3     2    71    2
     4     3     4    1
     5     3     5    1
     6     3    72    1
     7     3    73    1
     8     4     6    1
     9     4    74    1
    10     4    75    1
    11     5     7    1
    12     5    76    1
    13     5    77    1
    14     6     8    1
    15     6    78    1
    16     6    79    1
    17     7     9    1
    18     7    80    1
    19     7    81    1
    20     8    10    1
    21     8    82    1
    22     8    83    1
    23     9    11    1
    24     9    84    1
    25     9    85    1
    26    10    12    1
    27    10    86    1
    28    10    87    1
    29    11    13    1
    30    11    88    1
    31    11    89    1
    32    12    14    1
    33    12    90    1
    34    12    91    1
    35    13    15    1
    36    13    92    1
    37    13    93    1
    38    14    16    1
    39    14    94    1
    40    14    95    1
    41    15    17    1
    42    15    96    1
    43    15    97    1
    44    16    18    1
    45    16    98    1
    46    16    99    1
    47    17    19    1
    48    17   100    1
    49    17   101    1
    50    18    20    1
    51    18   102    1
    52    18   103    1
    53    19    21    1
    54    19   104    1
    55    19   105    1
    56    20    22    1
    57    20   106    1
    58    20   107    1
    59    21    23    1
    60    21   108    1
    61    21   109    1
    62    22    24    1
    63    22   110    1
    64    22   111    1
    65    23    25    1
    66    23   112    1
    67    23   113    1
    68    24    26    1
    69    24   114    1
    70    24   115    1
    71    25    27    1
    72    25   116    1
    73    25   117    1
    74    26    28    1
    75    26   118    1
    76    26   119    1
    77    27    29    1
    78    27   120    1
    79    27   121    1
    80    28    30    1
    81    28   122    1
    82    28   123    1
    83    29    31    1
    84    29   124    1
    85    29   125    1
    86    30    32    1
    87    30   126    1
    88    30   127    1
    89    31    33    1
    90    31   128    1
    91    31   129    1
    92    32    34    1
    93    32   130    1
    94    32   131    1
    95    33    35    1
    96    33   132    1
    97    33   133    1
    98    34    36    1
    99    34   134    1
   100    34   135    1
   101    35    37    1
   102    35   136    1
   103    35   137    1
   104    36    38    1
   105    36   138    1
   106    36   139    1
   107    37    39    1
   108    37   140    1
   109    37   141    1
   110    38    40    1
   111    38   142    1
   112    38   143    1
   113    39    41    1
   114    39   144    1
   115    39   145    1
   116    40    42    1
   117    40   146    1
   118    40   147    1
   119    41    43    1
   120    41   148    1
   121    41   149    1
   122    42    44    1
   123    42   150    1
   124    42   151    1
   125    43    45    1
   126    43   152    1
   127    43   153    1
   128    44    46    1
   129    44   154    1
   130    44   155    1
   131    45    47    1
   132    45   156    1
   133    45   157    1
   134    46    48    1
   135    46   158    1
   136    46   159    1
   137    47    49    1
   138    47   160    1
   139    47   161    1
   140    48    50    1
   141    48   162    1
   142    48   163    1
   143    49    51    1
   144    49   164    1
   145    49   165    1
   146    50    52    1
   147    50   166    1
   148    50   167    1
   149    51    53    1
   150    51   168    1
   151    51   169    1
   152    52    54    1
   153    52   170    1
   154    52   171    1
   155    53    55    1
   156    53   172    1
   157    53   173    1
   158    54    56    1
   159    54   174    1
   160    54   175    1
   161    55    57    1
   162    55   176    1
   163    55   177    1
   164    56    58    1
   165    56   178    1
   166    56   179    1
   167    57    59    1
   168    57   180    1
   169    57   181    1
   170    58    60    1
   171    58   182    1
   172    58   183    1
   173    59    61    1
   174    59   184    1
   175    59   185    1
   176    60    62    1
   177    60   186    1
   178    60   187    1
   179    61    63    1
   180    61   188    1
   181    61   189    1
   182    62    64    1
   183    62   190    1
   184    62   191    1
   185    63    65    1
   186    63   192    1
   187    63   193    1
   188    64    66    1
   189    64   194    1
   190    64   195    1
   191    65    67    1
   192    65   196    1
   193    65   197    1
   194    66    68    1
   195    66   198    1
   196    66   199    1
   197    67    69    1
   198    67   200    1
   199    67   201    1
   200    68    70    1
   201    68   202    1
   202    68   203    1
   203    69    71    1
   204    69   204    1
   205    69   205    1
   206    70   206    1
   207    70   207    1
   208    70   208    1
