@<TRIPOS>MOLECULE
IMPHY002402
 16 17 0 0 0
SMALL
GASTEIGER

@<TRIPOS>ATOM
      1 C           2.5888    1.5048    0.0000 C.3     1  UNL1        0.0228
      2 C           2.5888    2.5039    0.0000 C.3     1  UNL1        0.0102
      3 C           1.7282    1.0009    0.0000 C.2     1  UNL1       -0.0417
      4 C           3.4598    1.0009    0.0000 C.3     1  UNL1        0.0257
      5 C           1.7247    2.9992    0.0000 C.3     1  UNL1        0.0339
      6 C           3.4563    3.0061    0.0000 C.3     1  UNL1        0.0258
      7 C           2.5871    3.5048    0.0000 C.3     1  UNL1        0.0007
      8 C           0.8658    1.4996    0.0000 C.3     1  UNL1        0.0549
      9 C           1.7299    0.0017    0.0000 C.2     1  UNL1       -0.0091
     10 C           4.3274    1.4996    0.0000 C.2     1  UNL1       -0.0485
     11 C           0.8658    2.4987    0.0000 C.3     1  UNL1        0.1560
     12 C           4.3274    2.5039    0.0000 C.2     1  UNL1       -0.0346
     13 C           5.1932    0.9992    0.0000 C.3     1  UNL1        0.0180
     14 O           0.0000    2.9992    0.0000 O.3     1  UNL1       -0.2228
     15 C           6.0607    1.4979    0.0000 C.3     1  UNL1        0.0043
     16 C           5.1914    0.0000    0.0000 C.3     1  UNL1        0.0043
@<TRIPOS>BOND
     1     1     2    1
     2     1     3    1
     3     1     4    1
     4     2     5    1
     5     2     6    1
     6     2     7    1
     7     3     8    1
     8     3     9    2
     9     4    10    1
    10     5    11    1
    11     6    12    1
    12     8    11    1
    13    10    12    2
    14    10    13    1
    15    11    14    1
    16    13    15    1
    17    13    16    1
