@<TRIPOS>MOLECULE
IMPHY004109
 144 151 0 0 0
SMALL
GASTEIGER

@<TRIPOS>ATOM
      1 O           7.7331    0.5900    0.0000 O.3     1  UNL1       -0.3448
      2 O          16.7220    3.7298    0.0000 O.3     1  UNL1       -0.3912
      3 O           9.5542   -1.1808    0.0000 O.3     1  UNL1       -0.3944
      4 O           6.8671    2.0900    0.0000 O.3     1  UNL1       -0.3315
      5 O           6.0010   -0.4100    0.0000 O.3     1  UNL1       -0.3377
      6 O           4.2690    0.5900    0.0000 O.3     1  UNL1       -0.3864
      7 O           4.2690    2.5900    0.0000 O.3     1  UNL1       -0.3860
      8 O           4.2690   -0.4100    0.0000 O.3     1  UNL1       -0.3405
      9 O           5.1350    4.0900    0.0000 O.3     1  UNL1       -0.4788
     10 O           6.8671    4.0900    0.0000 O.2     1  UNL1       -0.2480
     11 O           6.0010   -2.4100    0.0000 O.3     1  UNL1       -0.3378
     12 O           4.2690   -3.4100    0.0000 O.3     1  UNL1       -0.3864
     13 O           2.5369   -2.4100    0.0000 O.3     1  UNL1       -0.3865
     14 O           5.1350   -3.9100    0.0000 O.3     1  UNL1       -0.3431
     15 O           2.5369    0.5900    0.0000 O.3     1  UNL1       -0.3924
     16 O           7.7331   -3.4100    0.0000 O.3     1  UNL1       -0.3841
     17 O           7.7331   -5.4100    0.0000 O.3     1  UNL1       -0.3864
     18 O           6.0010   -6.4100    0.0000 O.3     1  UNL1       -0.3866
     19 C          12.2541    2.1598    0.0000 C.3     1  UNL1       -0.0194
     20 C          11.3862    2.6565    0.0000 C.3     1  UNL1       -0.0257
     21 C          10.4781    2.1461    0.0000 C.3     1  UNL1       -0.0249
     22 C          13.1182    2.6631    0.0000 C.3     1  UNL1       -0.0051
     23 C          10.4741    1.1045    0.0000 C.3     1  UNL1       -0.0255
     24 C          12.2742    1.1184    0.0000 C.3     1  UNL1       -0.0463
     25 C          13.1144    3.6631    0.0000 C.2     1  UNL1       -0.0633
     26 C           9.5408    0.5512    0.0000 C.3     1  UNL1        0.0206
     27 C          11.3782    0.5872    0.0000 C.3     1  UNL1       -0.0485
     28 C          14.0062    4.2012    0.0000 C.3     1  UNL1       -0.0111
     29 C          14.9143    3.6909    0.0000 C.3     1  UNL1        0.0005
     30 C          11.3823    3.6564    0.0000 C.3     1  UNL1       -0.0306
     31 C          14.0142    2.1319    0.0000 C.3     1  UNL1       -0.0428
     32 C           9.5491    2.7066    0.0000 C.3     1  UNL1       -0.0447
     33 C          14.9183    2.6493    0.0000 C.3     1  UNL1       -0.0439
     34 C          12.8999    1.3962    0.0000 C.3     1  UNL1       -0.0585
     35 C           8.5991    1.0900    0.0000 C.3     1  UNL1        0.0695
     36 C          12.2464    4.1598    0.0000 C.2     1  UNL1       -0.0836
     37 C          10.4820    3.1461    0.0000 C.3     1  UNL1       -0.0590
     38 C           8.6033    2.1750    0.0000 C.3     1  UNL1       -0.0254
     39 C          13.4639    1.7248    0.0000 C.3     1  UNL1       -0.0553
     40 C          13.9770    5.2858    0.0000 C.3     1  UNL1       -0.0406
     41 C          15.8560    4.2298    0.0000 C.3     1  UNL1        0.0616
     42 C          14.9060    5.8463    0.0000 C.3     1  UNL1       -0.0320
     43 C          15.8518    5.3147    0.0000 C.3     1  UNL1       -0.0211
     44 C          10.0475   -0.3110    0.0000 C.3     1  UNL1        0.0522
     45 C           9.0475   -0.3187    0.0000 C.3     1  UNL1       -0.0548
     46 C          15.7860    3.2009    0.0000 C.3     1  UNL1       -0.0567
     47 C          15.3926    6.7200    0.0000 C.3     1  UNL1       -0.0597
     48 C          14.3927    6.7046    0.0000 C.3     1  UNL1       -0.0597
     49 C           6.8671    1.0900    0.0000 C.3     1  UNL1        0.1892
     50 C           6.0010    0.5900    0.0000 C.3     1  UNL1        0.1407
     51 C           5.1350    1.0900    0.0000 C.3     1  UNL1        0.1149
     52 C           6.0010    2.5900    0.0000 C.3     1  UNL1        0.1859
     53 C           5.1350    2.0900    0.0000 C.3     1  UNL1        0.1202
     54 C           5.1350   -0.9100    0.0000 C.3     1  UNL1        0.1889
     55 C           6.0010    3.5900    0.0000 C.2     1  UNL1        0.3367
     56 C           5.1350   -1.9100    0.0000 C.3     1  UNL1        0.1406
     57 C           4.2690   -2.4100    0.0000 C.3     1  UNL1        0.1144
     58 C           3.4030   -0.9100    0.0000 C.3     1  UNL1        0.1130
     59 C           3.4030   -1.9100    0.0000 C.3     1  UNL1        0.1119
     60 C           2.5369   -0.4100    0.0000 C.3     1  UNL1        0.0730
     61 C           6.0010   -3.4100    0.0000 C.3     1  UNL1        0.1884
     62 C           6.8671   -3.9100    0.0000 C.3     1  UNL1        0.1341
     63 C           6.8671   -4.9100    0.0000 C.3     1  UNL1        0.1140
     64 C           5.1350   -4.9100    0.0000 C.3     1  UNL1        0.0873
     65 C           6.0010   -5.4100    0.0000 C.3     1  UNL1        0.1095
     66 C           4.2690   -5.4100    0.0000 C.3     1  UNL1       -0.0361
     67 H          12.1207    3.0843    0.0000 H       1  UNL1        0.0315
     68 H          10.4807    0.2545    0.0000 H       1  UNL1        0.0313
     69 H          12.4945    0.5388    0.0000 H       1  UNL1        0.0271
     70 H          12.8829    1.2362    0.0000 H       1  UNL1        0.0271
     71 H          10.9827    0.1097    0.0000 H       1  UNL1        0.0268
     72 H          11.7810    0.1158    0.0000 H       1  UNL1        0.0268
     73 H          14.7340    4.6403    0.0000 H       1  UNL1        0.0352
     74 H          11.1680    4.2382    0.0000 H       1  UNL1        0.0310
     75 H          10.7722    3.5464    0.0000 H       1  UNL1        0.0310
     76 H          13.6114    1.6606    0.0000 H       1  UNL1        0.0274
     77 H          14.4097    1.6544    0.0000 H       1  UNL1        0.0274
     78 H           9.9555    3.1748    0.0000 H       1  UNL1        0.0271
     79 H           9.1574    3.1872    0.0000 H       1  UNL1        0.0271
     80 H          15.1296    2.0664    0.0000 H       1  UNL1        0.0272
     81 H          15.5287    2.7577    0.0000 H       1  UNL1        0.0272
     82 H          12.4265    0.9959    0.0000 H       1  UNL1        0.0235
     83 H          13.3002    0.9228    0.0000 H       1  UNL1        0.0235
     84 H          13.3733    1.7966    0.0000 H       1  UNL1        0.0235
     85 H           8.0628    1.4011    0.0000 H       1  UNL1        0.0603
     86 H          12.2440    4.7798    0.0000 H       1  UNL1        0.0572
     87 H          11.1020    3.1437    0.0000 H       1  UNL1        0.0235
     88 H          10.4844    3.7661    0.0000 H       1  UNL1        0.0235
     89 H           9.8620    3.1485    0.0000 H       1  UNL1        0.0235
     90 H           8.3965    2.7595    0.0000 H       1  UNL1        0.0290
     91 H           7.9920    2.0713    0.0000 H       1  UNL1        0.0290
     92 H          12.8821    1.5105    0.0000 H       1  UNL1        0.0238
     93 H          13.6782    1.1430    0.0000 H       1  UNL1        0.0238
     94 H          14.0456    1.9391    0.0000 H       1  UNL1        0.0238
     95 H          13.7522    5.8637    0.0000 H       1  UNL1        0.0276
     96 H          13.3692    5.1633    0.0000 H       1  UNL1        0.0276
     97 H          16.3923    4.5408    0.0000 H       1  UNL1        0.0599
     98 H          16.4631    5.2110    0.0000 H       1  UNL1        0.0295
     99 H          16.0586    5.8992    0.0000 H       1  UNL1        0.0295
    100 H          10.5255   -0.7058    0.0000 H       1  UNL1        0.0563
    101 H          10.5194    0.0912    0.0000 H       1  UNL1        0.0563
    102 H           8.5082   -0.0128    0.0000 H       1  UNL1        0.0237
    103 H           8.7417   -0.8580    0.0000 H       1  UNL1        0.0237
    104 H           9.5868   -0.6245    0.0000 H       1  UNL1        0.0237
    105 H          15.4823    2.6604    0.0000 H       1  UNL1        0.0236
    106 H          16.3265    2.8972    0.0000 H       1  UNL1        0.0236
    107 H          16.0898    3.7414    0.0000 H       1  UNL1        0.0236
    108 H          15.9342    6.4183    0.0000 H       1  UNL1        0.0235
    109 H          15.6942    7.2616    0.0000 H       1  UNL1        0.0235
    110 H          14.8509    7.0216    0.0000 H       1  UNL1        0.0235
    111 H          14.9248    7.0228    0.0000 H       1  UNL1        0.0235
    112 H          14.0744    7.2366    0.0000 H       1  UNL1        0.0235
    113 H          13.8606    6.3863    0.0000 H       1  UNL1        0.0235
    114 H          17.2590    4.0398    0.0000 H       1  UNL1        0.2098
    115 H           6.8671    0.4700    0.0000 H       1  UNL1        0.0938
    116 H           9.8683   -1.7154    0.0000 H       1  UNL1        0.2094
    117 H           5.4641    0.2800    0.0000 H       1  UNL1        0.0675
    118 H           4.5981    1.4000    0.0000 H       1  UNL1        0.0648
    119 H           6.5380    2.9000    0.0000 H       1  UNL1        0.0741
    120 H           5.1350    2.7100    0.0000 H       1  UNL1        0.0652
    121 H           5.1350   -0.2900    0.0000 H       1  UNL1        0.0938
    122 H           3.7320    0.9000    0.0000 H       1  UNL1        0.2100
    123 H           4.2690    3.2100    0.0000 H       1  UNL1        0.2100
    124 H           5.1350   -2.5300    0.0000 H       1  UNL1        0.0675
    125 H           3.7320   -2.7200    0.0000 H       1  UNL1        0.0648
    126 H           3.4030   -0.2900    0.0000 H       1  UNL1        0.0647
    127 H           5.1350    4.7100    0.0000 H       1  UNL1        0.2951
    128 H           3.4030   -2.5300    0.0000 H       1  UNL1        0.0647
    129 H           1.9264   -0.3023    0.0000 H       1  UNL1        0.0584
    130 H           2.3249   -0.9926    0.0000 H       1  UNL1        0.0584
    131 H           6.5380   -3.1000    0.0000 H       1  UNL1        0.0938
    132 H           3.7320   -3.7200    0.0000 H       1  UNL1        0.2100
    133 H           2.0000   -2.1000    0.0000 H       1  UNL1        0.2100
    134 H           7.4040   -4.2200    0.0000 H       1  UNL1        0.0671
    135 H           6.8671   -5.5300    0.0000 H       1  UNL1        0.0648
    136 H           2.0000    0.9000    0.0000 H       1  UNL1        0.2095
    137 H           4.5981   -4.6000    0.0000 H       1  UNL1        0.0621
    138 H           6.5380   -5.7200    0.0000 H       1  UNL1        0.0646
    139 H           8.2700   -3.7200    0.0000 H       1  UNL1        0.2101
    140 H           3.9590   -4.8730    0.0000 H       1  UNL1        0.0255
    141 H           3.7320   -5.7200    0.0000 H       1  UNL1        0.0255
    142 H           4.5790   -5.9469    0.0000 H       1  UNL1        0.0255
    143 H           7.7331   -6.0300    0.0000 H       1  UNL1        0.2100
    144 H           5.4641   -6.7200    0.0000 H       1  UNL1        0.2100
@<TRIPOS>BOND
     1    35     1    1
     2    49     1    1
     3    41     2    1
     4     2   114    1
     5     3    44    1
     6     3   116    1
     7     4    49    1
     8     4    52    1
     9    50     5    1
    10    54     5    1
    11    51     6    1
    12     6   122    1
    13    53     7    1
    14     7   123    1
    15     8    54    1
    16     8    58    1
    17     9    55    1
    18     9   127    1
    19    10    55    2
    20    56    11    1
    21    61    11    1
    22    57    12    1
    23    12   132    1
    24    59    13    1
    25    13   133    1
    26    14    61    1
    27    14    64    1
    28    15    60    1
    29    15   136    1
    30    62    16    1
    31    16   139    1
    32    63    17    1
    33    17   143    1
    34    65    18    1
    35    18   144    1
    36    19    20    1
    37    19    22    1
    38    19    24    1
    39    19    34    1
    40    20    21    1
    41    20    30    1
    42    20    67    1
    43    21    23    1
    44    21    32    1
    45    21    37    1
    46    22    25    1
    47    22    31    1
    48    22    39    1
    49    23    26    1
    50    23    27    1
    51    23    68    1
    52    24    27    1
    53    24    69    1
    54    24    70    1
    55    25    28    1
    56    25    36    2
    57    26    35    1
    58    26    44    1
    59    26    45    1
    60    27    71    1
    61    27    72    1
    62    28    29    1
    63    28    40    1
    64    28    73    1
    65    29    33    1
    66    29    41    1
    67    29    46    1
    68    30    36    1
    69    30    74    1
    70    30    75    1
    71    31    33    1
    72    31    76    1
    73    31    77    1
    74    32    38    1
    75    32    78    1
    76    32    79    1
    77    33    80    1
    78    33    81    1
    79    34    82    1
    80    34    83    1
    81    34    84    1
    82    35    38    1
    83    35    85    1
    84    36    86    1
    85    37    87    1
    86    37    88    1
    87    37    89    1
    88    38    90    1
    89    38    91    1
    90    39    92    1
    91    39    93    1
    92    39    94    1
    93    40    42    1
    94    40    95    1
    95    40    96    1
    96    41    43    1
    97    41    97    1
    98    42    43    1
    99    42    47    1
   100    42    48    1
   101    43    98    1
   102    43    99    1
   103    44   100    1
   104    44   101    1
   105    45   102    1
   106    45   103    1
   107    45   104    1
   108    46   105    1
   109    46   106    1
   110    46   107    1
   111    47   108    1
   112    47   109    1
   113    47   110    1
   114    48   111    1
   115    48   112    1
   116    48   113    1
   117    49    50    1
   118    49   115    1
   119    50    51    1
   120    50   117    1
   121    51    53    1
   122    51   118    1
   123    52    53    1
   124    52    55    1
   125    52   119    1
   126    53   120    1
   127    54    56    1
   128    54   121    1
   129    56    57    1
   130    56   124    1
   131    57    59    1
   132    57   125    1
   133    58    59    1
   134    58    60    1
   135    58   126    1
   136    59   128    1
   137    60   129    1
   138    60   130    1
   139    61    62    1
   140    61   131    1
   141    62    63    1
   142    62   134    1
   143    63    65    1
   144    63   135    1
   145    64    65    1
   146    64    66    1
   147    64   137    1
   148    65   138    1
   149    66   140    1
   150    66   141    1
   151    66   142    1
