@<TRIPOS>MOLECULE
IMPHY003572
 62 68 0 0 0
SMALL
GASTEIGER

@<TRIPOS>ATOM
      1 O           5.8748    1.0794    0.0000 O.3     1  UNL1       -0.3516
      2 O           3.8693   -2.5508    0.0000 O.3     1  UNL1       -0.3716
      3 O           8.6771    1.6652    0.0000 O.3     1  UNL1       -0.4539
      4 O           5.0673    1.5241    0.0000 O.3     1  UNL1       -0.3836
      5 O           3.3352    0.5241    0.0000 O.2     1  UNL1       -0.2934
      6 O           7.7217    3.2003    0.0000 O.2     1  UNL1       -0.2478
      7 O           2.0000   -1.5009    0.0000 O.2     1  UNL1       -0.2915
      8 O          11.1225   -0.2657    0.0000 O.2     1  UNL1       -0.4706
      9 C           6.8272    0.5588    0.0000 C.3     1  UNL1        0.1244
     10 C           5.9333    0.0241    0.0000 C.3     1  UNL1        0.0372
     11 C           5.9333   -0.9759    0.0000 C.3     1  UNL1       -0.0175
     12 C           7.7333    0.0449    0.0000 C.3     1  UNL1        0.0419
     13 C           5.0673   -1.4759    0.0000 C.3     1  UNL1        0.0382
     14 C           6.8021    1.6435    0.0000 C.3     1  UNL1        0.1857
     15 C           4.2012   -0.9759    0.0000 C.3     1  UNL1        0.1329
     16 C           5.0673    0.5241    0.0000 C.3     1  UNL1        0.1224
     17 C           6.8272   -1.5105    0.0000 C.3     1  UNL1       -0.0479
     18 C           7.7333   -0.9967    0.0000 C.3     1  UNL1       -0.0409
     19 C           3.4642   -1.6430    0.0000 C.3     1  UNL1        0.0843
     20 C           4.2012    0.0241    0.0000 C.2     1  UNL1        0.1794
     21 C           8.6771    0.5802    0.0000 C.3     1  UNL1        0.1391
     22 C           6.5083    1.0200    0.0000 C.3     1  UNL1       -0.0537
     23 C           4.8581   -2.4477    0.0000 C.3     1  UNL1        0.0591
     24 C           4.9744   -2.9708    0.0000 C.2     1  UNL1       -0.0706
     25 C           8.6032   -0.4484    0.0000 C.3     1  UNL1       -0.0531
     26 C           7.7333    2.2004    0.0000 C.2     1  UNL1        0.3398
     27 C           2.9530   -1.8038    0.0000 C.2     1  UNL1        0.1728
     28 C           3.4943   -3.2003    0.0000 C.2     1  UNL1       -0.0214
     29 C           2.7938   -0.9010    0.0000 C.3     1  UNL1       -0.0347
     30 C           2.8778   -2.4530    0.0000 C.3     1  UNL1       -0.0347
     31 C           9.5412    0.0768    0.0000 C.ar    1  UNL1        0.0310
     32 C           9.6419   -0.9181    0.0000 C.ar    1  UNL1       -0.0172
     33 C          10.4563    0.4800    0.0000 C.ar    1  UNL1        0.0984
     34 C          10.6192   -1.1298    0.0000 C.ar    1  UNL1        0.0921
     35 H           5.9267   -1.8259    0.0000 H       1  UNL1        0.0317
     36 H           6.3631    2.3713    0.0000 H       1  UNL1        0.0743
     37 H           5.6042    0.8341    0.0000 H       1  UNL1        0.0680
     38 H           6.4226   -1.9803    0.0000 H       1  UNL1        0.0269
     39 H           7.2209   -1.9896    0.0000 H       1  UNL1        0.0269
     40 H           7.9424   -1.5804    0.0000 H       1  UNL1        0.0273
     41 H           8.3442   -0.8906    0.0000 H       1  UNL1        0.0273
     42 H           9.2146    0.8891    0.0000 H       1  UNL1        0.0793
     43 H           7.0452    0.7100    0.0000 H       1  UNL1        0.0237
     44 H           6.8183    1.5570    0.0000 H       1  UNL1        0.0237
     45 H           5.9714    1.3300    0.0000 H       1  UNL1        0.0237
     46 H           4.8572   -3.0677    0.0000 H       1  UNL1        0.0569
     47 H           5.4745   -2.5138    0.0000 H       1  UNL1        0.0569
     48 H           5.4325   -3.3886    0.0000 H       1  UNL1        0.0580
     49 H           8.2973   -0.9877    0.0000 H       1  UNL1        0.0237
     50 H           9.1425   -0.7542    0.0000 H       1  UNL1        0.0237
     51 H           8.9090    0.0909    0.0000 H       1  UNL1        0.0237
     52 H           3.1843   -3.7373    0.0000 H       1  UNL1        0.0650
     53 H           2.3756   -2.0894    0.0000 H       1  UNL1        0.0258
     54 H           2.5142   -2.9552    0.0000 H       1  UNL1        0.0258
     55 H           3.2538   -0.4853    0.0000 H       1  UNL1        0.0258
     56 H           2.3782   -0.4410    0.0000 H       1  UNL1        0.0258
     57 H           3.3800   -2.8166    0.0000 H       1  UNL1        0.0258
     58 H           2.3338   -1.3166    0.0000 H       1  UNL1        0.0258
     59 H           4.5303    1.8341    0.0000 H       1  UNL1        0.2104
     60 H           9.1795   -1.3312    0.0000 H       1  UNL1        0.0653
     61 H          10.5875    1.0860    0.0000 H       1  UNL1        0.1033
     62 H          10.8692   -1.6971    0.0000 H       1  UNL1        0.1029
@<TRIPOS>BOND
     1     9     1    1
     2     1    14    1
     3     2    19    1
     4     2    23    1
     5     3    21    1
     6     3    26    1
     7    16     4    1
     8     4    59    1
     9     5    20    2
    10     6    26    2
    11     7    27    2
    12     8    33   ar
    13     8    34   ar
    14     9    10    1
    15     9    12    1
    16     9    14    1
    17    10    11    1
    18    10    16    1
    19    10    22    1
    20    11    13    1
    21    11    17    1
    22    11    35    1
    23    12    18    1
    24    12    21    1
    25    12    25    1
    26    13    15    1
    27    13    23    1
    28    13    24    1
    29    14    26    1
    30    14    36    1
    31    15    19    1
    32    15    20    1
    33    15    27    1
    34    16    20    1
    35    16    37    1
    36    17    18    1
    37    17    38    1
    38    17    39    1
    39    18    40    1
    40    18    41    1
    41    19    29    1
    42    19    30    1
    43    21    31    1
    44    21    42    1
    45    22    43    1
    46    22    44    1
    47    22    45    1
    48    23    46    1
    49    23    47    1
    50    24    28    2
    51    24    48    1
    52    25    49    1
    53    25    50    1
    54    25    51    1
    55    27    28    1
    56    28    52    1
    57    29    55    1
    58    29    56    1
    59    29    58    1
    60    30    53    1
    61    30    54    1
    62    30    57    1
    63    31    32   ar
    64    31    33   ar
    65    32    34   ar
    66    32    60    1
    67    33    61    1
    68    34    62    1
