@<TRIPOS>MOLECULE
IMPHY016095
 34 35 0 0 0
SMALL
GASTEIGER

@<TRIPOS>ATOM
      1 O           5.7325    2.4741    0.0000 O.3     1  UNL1       -0.3653
      2 C           4.4956    0.8732    0.0000 C.3     1  UNL1        0.0153
      3 C           6.2103    0.5256    0.0000 C.3     1  UNL1        0.0890
      4 C           6.4692    1.4915    0.0000 C.3     1  UNL1        0.0688
      5 C           4.8376   -0.0665    0.0000 C.2     1  UNL1       -0.0304
      6 C           7.6093    0.0167    0.0000 C.3     1  UNL1       -0.0177
      7 C           7.8681    0.9827    0.0000 C.3     1  UNL1       -0.0228
      8 C           4.0108    1.7479    0.0000 C.3     1  UNL1       -0.0536
      9 C           3.5140    0.6824    0.0000 C.3     1  UNL1       -0.0536
     10 C           5.9515   -0.4404    0.0000 C.3     1  UNL1       -0.0319
     11 C           4.4150   -0.9728    0.0000 C.2     1  UNL1       -0.0595
     12 C           3.4188   -1.0599    0.0000 C.2     1  UNL1       -0.0659
     13 C           2.9962   -1.9662    0.0000 C.2     1  UNL1       -0.0871
     14 C           2.0000   -2.0534    0.0000 C.3     1  UNL1       -0.0465
     15 H           6.4551    0.8716    0.0000 H       1  UNL1        0.0605
     16 H           7.4143   -0.5718    0.0000 H       1  UNL1        0.0297
     17 H           8.2032   -0.1610    0.0000 H       1  UNL1        0.0297
     18 H           8.4621    0.8049    0.0000 H       1  UNL1        0.0291
     19 H           8.0630    1.5712    0.0000 H       1  UNL1        0.0291
     20 H           4.5531    2.0484    0.0000 H       1  UNL1        0.0239
     21 H           3.7102    2.2901    0.0000 H       1  UNL1        0.0239
     22 H           3.4685    1.4473    0.0000 H       1  UNL1        0.0239
     23 H           3.3957    1.2910    0.0000 H       1  UNL1        0.0239
     24 H           2.9054    0.5641    0.0000 H       1  UNL1        0.0239
     25 H           3.6323    0.0738    0.0000 H       1  UNL1        0.0239
     26 H           5.3526   -0.2799    0.0000 H       1  UNL1        0.0261
     27 H           5.7910   -1.0392    0.0000 H       1  UNL1        0.0261
     28 H           6.5504   -0.6008    0.0000 H       1  UNL1        0.0261
     29 H           4.7706   -1.4806    0.0000 H       1  UNL1        0.0618
     30 H           3.0632   -0.5520    0.0000 H       1  UNL1        0.0614
     31 H           3.3518   -2.4741    0.0000 H       1  UNL1        0.0569
     32 H           1.9460   -1.4357    0.0000 H       1  UNL1        0.0272
     33 H           1.3824   -2.1074    0.0000 H       1  UNL1        0.0272
     34 H           2.0540   -2.6710    0.0000 H       1  UNL1        0.0272
@<TRIPOS>BOND
     1     1     3    1
     2     1     4    1
     3     2     4    1
     4     2     5    1
     5     2     8    1
     6     2     9    1
     7     3     5    1
     8     3     6    1
     9     3    10    1
    10     4     7    1
    11     4    15    1
    12     5    11    2
    13     6     7    1
    14     6    16    1
    15     6    17    1
    16     7    18    1
    17     7    19    1
    18     8    20    1
    19     8    21    1
    20     8    22    1
    21     9    23    1
    22     9    24    1
    23     9    25    1
    24    10    26    1
    25    10    27    1
    26    10    28    1
    27    11    12    1
    28    11    29    1
    29    12    13    2
    30    12    30    1
    31    13    14    1
    32    13    31    1
    33    14    32    1
    34    14    33    1
    35    14    34    1
