@<TRIPOS>MOLECULE
IMPHY003231
 125 131 0 0 0
SMALL
GASTEIGER

@<TRIPOS>ATOM
      1 O           6.8671   -1.3225    0.0000 O.3     1  UNL1       -0.3451
      2 O           5.9675    4.2433    0.0000 O.3     1  UNL1       -0.3915
      3 O           3.2532    4.7961    0.0000 O.3     1  UNL1       -0.3673
      4 O          10.5121   -0.2915    0.0000 O.3     1  UNL1       -0.3912
      5 O           5.1350   -1.3225    0.0000 O.3     1  UNL1       -0.3405
      6 O           3.2078    7.5070    0.0000 O.3     1  UNL1       -0.3866
      7 O           6.8671   -3.3225    0.0000 O.3     1  UNL1       -0.3378
      8 O           5.1350   -4.3225    0.0000 O.3     1  UNL1       -0.3864
      9 O           3.4030   -3.3225    0.0000 O.3     1  UNL1       -0.3865
     10 O           2.5369   -1.8225    0.0000 O.3     1  UNL1       -0.3924
     11 O           6.0010   -4.8225    0.0000 O.3     1  UNL1       -0.3461
     12 O           8.5991   -4.3225    0.0000 O.3     1  UNL1       -0.3841
     13 O           8.5991   -6.3225    0.0000 O.3     1  UNL1       -0.3864
     14 O           6.8671   -7.3225    0.0000 O.3     1  UNL1       -0.3869
     15 C           5.9790    1.2433    0.0000 C.3     1  UNL1       -0.0206
     16 C           5.1111    1.7400    0.0000 C.3     1  UNL1       -0.0208
     17 C           6.8431    1.7467    0.0000 C.3     1  UNL1       -0.0269
     18 C           7.7551    1.2433    0.0000 C.3     1  UNL1       -0.0228
     19 C           5.1072    2.7400    0.0000 C.3     1  UNL1       -0.0036
     20 C           7.7671    0.2018    0.0000 C.3     1  UNL1       -0.0014
     21 C           4.1598    3.0411    0.0000 C.3     1  UNL1       -0.0064
     22 C           5.9670    0.2018    0.0000 C.3     1  UNL1       -0.0200
     23 C           6.8393    2.7466    0.0000 C.3     1  UNL1       -0.0227
     24 C           4.1661    1.4316    0.0000 C.3     1  UNL1       -0.0464
     25 C           5.9713    3.2433    0.0000 C.3     1  UNL1        0.0592
     26 C           6.8671   -0.3225    0.0000 C.3     1  UNL1        0.0662
     27 C           3.5794    2.2341    0.0000 C.3     1  UNL1       -0.0467
     28 C           8.7047   -0.3444    0.0000 C.3     1  UNL1       -0.0032
     29 C           8.6797    1.8110    0.0000 C.3     1  UNL1       -0.0446
     30 C           5.3392    0.4748    0.0000 C.3     1  UNL1       -0.0587
     31 C           4.7727    0.7990    0.0000 C.3     1  UNL1       -0.0587
     32 C           3.8455    3.9904    0.0000 C.3     1  UNL1        0.0705
     33 C           7.7435    2.2433    0.0000 C.3     1  UNL1       -0.0589
     34 C           9.6422    0.2018    0.0000 C.3     1  UNL1        0.0607
     35 C           9.6296    1.2867    0.0000 C.3     1  UNL1       -0.0258
     36 C           4.7948    4.3047    0.0000 C.3     1  UNL1       -0.0213
     37 C           9.2047   -1.2104    0.0000 C.3     1  UNL1       -0.0571
     38 C           8.2047   -1.2104    0.0000 C.3     1  UNL1       -0.0571
     39 C           3.0398    3.3981    0.0000 C.3     1  UNL1       -0.0355
     40 C           4.7893    5.3047    0.0000 C.3     1  UNL1       -0.0213
     41 C           3.8365    5.6084    0.0000 C.3     1  UNL1        0.0876
     42 C           6.0010   -1.8225    0.0000 C.3     1  UNL1        0.1886
     43 C           3.5222    6.5577    0.0000 C.3     1  UNL1        0.0865
     44 C           6.0010   -2.8225    0.0000 C.3     1  UNL1        0.1406
     45 C           5.1350   -3.3225    0.0000 C.3     1  UNL1        0.1144
     46 C           2.5728    6.2434    0.0000 C.3     1  UNL1       -0.0339
     47 C           4.4715    6.8720    0.0000 C.3     1  UNL1       -0.0339
     48 C           4.2690   -1.8225    0.0000 C.3     1  UNL1        0.1130
     49 C           4.2690   -2.8225    0.0000 C.3     1  UNL1        0.1119
     50 C           3.4030   -1.3225    0.0000 C.3     1  UNL1        0.0730
     51 C           6.8671   -4.3225    0.0000 C.3     1  UNL1        0.1881
     52 C           7.7331   -4.8225    0.0000 C.3     1  UNL1        0.1341
     53 C           7.7331   -5.8225    0.0000 C.3     1  UNL1        0.1137
     54 C           6.0010   -5.8225    0.0000 C.3     1  UNL1        0.0792
     55 C           6.8671   -6.3225    0.0000 C.3     1  UNL1        0.1069
     56 H           7.5743    2.1801    0.0000 H       1  UNL1        0.0312
     57 H           5.0140    3.5848    0.0000 H       1  UNL1        0.0335
     58 H           7.7671   -0.6482    0.0000 H       1  UNL1        0.0337
     59 H           3.3196    3.1697    0.0000 H       1  UNL1        0.0332
     60 H           5.3574    0.3149    0.0000 H       1  UNL1        0.0296
     61 H           5.7512   -0.3795    0.0000 H       1  UNL1        0.0296
     62 H           7.4503    2.6413    0.0000 H       1  UNL1        0.0293
     63 H           7.0491    3.3301    0.0000 H       1  UNL1        0.0293
     64 H           3.6299    1.1203    0.0000 H       1  UNL1        0.0271
     65 H           4.4193    0.8657    0.0000 H       1  UNL1        0.0271
     66 H           6.5071    3.5554    0.0000 H       1  UNL1        0.0596
     67 H           7.4046   -0.6315    0.0000 H       1  UNL1        0.0600
     68 H           3.1169    2.6470    0.0000 H       1  UNL1        0.0269
     69 H           3.1201    1.8176    0.0000 H       1  UNL1        0.0269
     70 H           9.0678    2.2945    0.0000 H       1  UNL1        0.0271
     71 H           8.2697    2.2760    0.0000 H       1  UNL1        0.0271
     72 H           4.8627    0.8715    0.0000 H       1  UNL1        0.0235
     73 H           4.9425   -0.0016    0.0000 H       1  UNL1        0.0235
     74 H           5.8156    0.0781    0.0000 H       1  UNL1        0.0235
     75 H           4.1893    1.0088    0.0000 H       1  UNL1        0.0235
     76 H           4.5629    0.2156    0.0000 H       1  UNL1        0.0235
     77 H           5.3561    0.5892    0.0000 H       1  UNL1        0.0235
     78 H           8.3635    2.2504    0.0000 H       1  UNL1        0.0235
     79 H           7.7364    2.8632    0.0000 H       1  UNL1        0.0235
     80 H           7.1236    2.2361    0.0000 H       1  UNL1        0.0235
     81 H          10.1761    0.5169    0.0000 H       1  UNL1        0.0599
     82 H          10.2417    1.1877    0.0000 H       1  UNL1        0.0290
     83 H           9.8319    1.8728    0.0000 H       1  UNL1        0.0290
     84 H           4.9271    3.6990    0.0000 H       1  UNL1        0.0294
     85 H           5.4111    4.3730    0.0000 H       1  UNL1        0.0294
     86 H           7.6677   -0.9004    0.0000 H       1  UNL1        0.0236
     87 H           7.8947   -1.7473    0.0000 H       1  UNL1        0.0236
     88 H           8.7416   -1.5204    0.0000 H       1  UNL1        0.0236
     89 H           8.6677   -1.5204    0.0000 H       1  UNL1        0.0236
     90 H           9.5147   -1.7473    0.0000 H       1  UNL1        0.0236
     91 H           9.7416   -0.9004    0.0000 H       1  UNL1        0.0236
     92 H           6.5032    4.5554    0.0000 H       1  UNL1        0.2098
     93 H           2.6726    3.8976    0.0000 H       1  UNL1        0.0257
     94 H           2.5403    3.0308    0.0000 H       1  UNL1        0.0257
     95 H           3.4070    2.8985    0.0000 H       1  UNL1        0.0257
     96 H           5.4062    5.2433    0.0000 H       1  UNL1        0.0292
     97 H           4.9148    5.9118    0.0000 H       1  UNL1        0.0292
     98 H           2.9962    5.7367    0.0000 H       1  UNL1        0.0625
     99 H           6.0010   -1.2025    0.0000 H       1  UNL1        0.0938
    100 H          11.0466    0.0226    0.0000 H       1  UNL1        0.2098
    101 H           6.0010   -3.4425    0.0000 H       1  UNL1        0.0675
    102 H           4.5981   -3.6325    0.0000 H       1  UNL1        0.0648
    103 H           2.3780    6.8320    0.0000 H       1  UNL1        0.0258
    104 H           1.9843    6.0485    0.0000 H       1  UNL1        0.0258
    105 H           2.7677    5.6548    0.0000 H       1  UNL1        0.0258
    106 H           4.6664    6.2834    0.0000 H       1  UNL1        0.0258
    107 H           5.0601    7.0669    0.0000 H       1  UNL1        0.0258
    108 H           4.2766    7.4606    0.0000 H       1  UNL1        0.0258
    109 H           4.2690   -1.2025    0.0000 H       1  UNL1        0.0647
    110 H           3.7320   -2.5125    0.0000 H       1  UNL1        0.0647
    111 H           2.6007    7.6325    0.0000 H       1  UNL1        0.2102
    112 H           3.8015   -0.8476    0.0000 H       1  UNL1        0.0584
    113 H           3.0044   -0.8476    0.0000 H       1  UNL1        0.0584
    114 H           7.4040   -4.0125    0.0000 H       1  UNL1        0.0937
    115 H           4.5981   -4.6325    0.0000 H       1  UNL1        0.2100
    116 H           3.4030   -3.9425    0.0000 H       1  UNL1        0.2100
    117 H           8.2700   -5.1325    0.0000 H       1  UNL1        0.0671
    118 H           2.0000   -1.5125    0.0000 H       1  UNL1        0.2095
    119 H           7.7331   -6.4425    0.0000 H       1  UNL1        0.0647
    120 H           5.3905   -5.7149    0.0000 H       1  UNL1        0.0587
    121 H           5.7890   -6.4051    0.0000 H       1  UNL1        0.0587
    122 H           6.3301   -6.6325    0.0000 H       1  UNL1        0.0643
    123 H           9.1360   -4.6325    0.0000 H       1  UNL1        0.2101
    124 H           8.5991   -6.9425    0.0000 H       1  UNL1        0.2100
    125 H           6.3301   -7.6325    0.0000 H       1  UNL1        0.2100
@<TRIPOS>BOND
     1    26     1    1
     2    42     1    1
     3    25     2    1
     4     2    92    1
     5     3    32    1
     6     3    41    1
     7     4    34    1
     8     4   100    1
     9     5    42    1
    10     5    48    1
    11     6    43    1
    12     6   111    1
    13    44     7    1
    14    51     7    1
    15    45     8    1
    16     8   115    1
    17    49     9    1
    18     9   116    1
    19    10    50    1
    20    10   118    1
    21    11    51    1
    22    11    54    1
    23    52    12    1
    24    12   123    1
    25    53    13    1
    26    13   124    1
    27    55    14    1
    28    14   125    1
    29    15    16    1
    30    15    17    1
    31    15    22    1
    32    15    30    1
    33    16    19    1
    34    16    24    1
    35    16    31    1
    36    17    18    1
    37    17    23    1
    38    17    56    1
    39    18    20    1
    40    18    29    1
    41    18    33    1
    42    19    21    1
    43    19    25    1
    44    19    57    1
    45    20    26    1
    46    20    28    1
    47    20    58    1
    48    21    27    1
    49    21    32    1
    50    21    59    1
    51    22    26    1
    52    22    60    1
    53    22    61    1
    54    23    25    1
    55    23    62    1
    56    23    63    1
    57    24    27    1
    58    24    64    1
    59    24    65    1
    60    25    66    1
    61    26    67    1
    62    27    68    1
    63    27    69    1
    64    28    34    1
    65    28    37    1
    66    28    38    1
    67    29    35    1
    68    29    70    1
    69    29    71    1
    70    30    72    1
    71    30    73    1
    72    30    74    1
    73    31    75    1
    74    31    76    1
    75    31    77    1
    76    32    36    1
    77    32    39    1
    78    33    78    1
    79    33    79    1
    80    33    80    1
    81    34    35    1
    82    34    81    1
    83    35    82    1
    84    35    83    1
    85    36    40    1
    86    36    84    1
    87    36    85    1
    88    37    89    1
    89    37    90    1
    90    37    91    1
    91    38    86    1
    92    38    87    1
    93    38    88    1
    94    39    93    1
    95    39    94    1
    96    39    95    1
    97    40    41    1
    98    40    96    1
    99    40    97    1
   100    41    43    1
   101    41    98    1
   102    42    44    1
   103    42    99    1
   104    43    46    1
   105    43    47    1
   106    44    45    1
   107    44   101    1
   108    45    49    1
   109    45   102    1
   110    46   103    1
   111    46   104    1
   112    46   105    1
   113    47   106    1
   114    47   107    1
   115    47   108    1
   116    48    49    1
   117    48    50    1
   118    48   109    1
   119    49   110    1
   120    50   112    1
   121    50   113    1
   122    51    52    1
   123    51   114    1
   124    52    53    1
   125    52   117    1
   126    53    55    1
   127    53   119    1
   128    54    55    1
   129    54   120    1
   130    54   121    1
   131    55   122    1
