@<TRIPOS>MOLECULE
IMPHY005926
 36 38 0 0 0
SMALL
GASTEIGER

@<TRIPOS>ATOM
      1 O           6.3981   -1.0000    0.0000 O.2     1  UNL1       -0.4506
      2 O           8.1465    2.0346    0.0000 O.3     1  UNL1       -0.4943
      3 O           8.1465   -2.0346    0.0000 O.3     1  UNL1       -0.4914
      4 O           6.3981    2.0000    0.0000 O.2     1  UNL1       -0.2861
      5 O           4.6497    2.0346    0.0000 O.3     1  UNL1       -0.5058
      6 O           2.8680   -1.0241    0.0000 O.3     1  UNL1       -0.4949
      7 C           7.2641    0.5000    0.0000 C.ar    1  UNL1        0.1098
      8 C           5.5320    0.5000    0.0000 C.ar    1  UNL1        0.1062
      9 C           7.2641   -0.5000    0.0000 C.ar    1  UNL1        0.1842
     10 C           5.5320   -0.5000    0.0000 C.ar    1  UNL1        0.1464
     11 C           6.3981    1.0000    0.0000 C.ar    1  UNL1        0.2074
     12 C           8.1580    1.0347    0.0000 C.ar    1  UNL1        0.1347
     13 C           8.1580   -1.0347    0.0000 C.ar    1  UNL1        0.1631
     14 C           4.6381    1.0347    0.0000 C.ar    1  UNL1        0.1347
     15 C           4.6381   -1.0347    0.0000 C.ar    1  UNL1        0.0233
     16 C           9.0641    0.5208    0.0000 C.ar    1  UNL1       -0.0155
     17 C           9.0641   -0.5208    0.0000 C.ar    1  UNL1       -0.0128
     18 C           3.7320   -0.5208    0.0000 C.ar    1  UNL1        0.1271
     19 C           3.7320    0.5208    0.0000 C.ar    1  UNL1        0.0225
     20 C           9.0067    2.5446    0.0000 C.3     1  UNL1        0.0788
     21 C           9.0067   -2.5446    0.0000 C.3     1  UNL1        0.0790
     22 C           2.0000   -0.5275    0.0000 C.3     1  UNL1        0.0788
     23 H           4.6453   -1.6546    0.0000 H       1  UNL1        0.0691
     24 H           9.5998    0.8329    0.0000 H       1  UNL1        0.0655
     25 H           9.5998   -0.8329    0.0000 H       1  UNL1        0.0656
     26 H           3.1963    0.8329    0.0000 H       1  UNL1        0.0691
     27 H           4.1164    2.3508    0.0000 H       1  UNL1        0.2922
     28 H           9.3229    2.0113    0.0000 H       1  UNL1        0.0660
     29 H           9.5400    2.8608    0.0000 H       1  UNL1        0.0660
     30 H           8.6905    3.0779    0.0000 H       1  UNL1        0.0660
     31 H           8.6905   -3.0779    0.0000 H       1  UNL1        0.0660
     32 H           9.5400   -2.8608    0.0000 H       1  UNL1        0.0660
     33 H           9.3229   -2.0113    0.0000 H       1  UNL1        0.0660
     34 H           2.3079    0.0106    0.0000 H       1  UNL1        0.0660
     35 H           1.4619   -0.2196    0.0000 H       1  UNL1        0.0660
     36 H           1.6921   -1.0656    0.0000 H       1  UNL1        0.0660
@<TRIPOS>BOND
     1     1     9   ar
     2     1    10   ar
     3     2    12    1
     4     2    20    1
     5     3    13    1
     6     3    21    1
     7     4    11    2
     8     5    14    1
     9     5    27    1
    10     6    18    1
    11     6    22    1
    12     7     9   ar
    13     7    11   ar
    14     7    12   ar
    15     8    10   ar
    16     8    11   ar
    17     8    14   ar
    18     9    13   ar
    19    10    15   ar
    20    12    16   ar
    21    13    17   ar
    22    14    19   ar
    23    15    18   ar
    24    15    23    1
    25    16    17   ar
    26    16    24    1
    27    17    25    1
    28    18    19   ar
    29    19    26    1
    30    20    28    1
    31    20    29    1
    32    20    30    1
    33    21    31    1
    34    21    32    1
    35    21    33    1
    36    22    34    1
    37    22    35    1
    38    22    36    1
