@<TRIPOS>MOLECULE
IMPHY004622
 69 69 0 0 0
SMALL
GASTEIGER

@<TRIPOS>ATOM
      1 O           3.6760   -5.3306    0.0000 O.3     1  UNL1       -0.3811
      2 O           2.3100   -6.6967    0.0000 O.3     1  UNL1       -0.3857
      3 O           4.1760    7.6597    0.0000 O.3     1  UNL1       -0.4775
      4 O           5.6760    6.7937    0.0000 O.2     1  UNL1       -0.2458
      5 C           5.0420   -6.6967    0.0000 C.3     1  UNL1        0.0002
      6 C           4.1760   -6.1967    0.0000 C.3     1  UNL1        0.1177
      7 C           3.3100   -6.6967    0.0000 C.3     1  UNL1        0.0959
      8 C           5.0420   -7.6967    0.0000 C.3     1  UNL1       -0.0448
      9 C           3.3100   -7.6967    0.0000 C.3     1  UNL1       -0.0212
     10 C           4.1760   -8.1967    0.0000 C.3     1  UNL1       -0.0498
     11 C           6.0420   -6.6967    0.0000 C.3     1  UNL1       -0.0568
     12 C           5.8081   -6.0539    0.0000 C.3     1  UNL1       -0.0568
     13 C           2.6672   -5.9306    0.0000 C.3     1  UNL1       -0.0330
     14 C           4.6760   -5.3306    0.0000 C.2     1  UNL1       -0.0494
     15 C           4.1760   -4.4646    0.0000 C.2     1  UNL1       -0.0600
     16 C           4.6760   -3.5986    0.0000 C.2     1  UNL1       -0.0507
     17 C           5.6760   -3.5986    0.0000 C.3     1  UNL1       -0.0397
     18 C           4.1760   -2.7326    0.0000 C.2     1  UNL1       -0.0588
     19 C           4.6760   -1.8665    0.0000 C.2     1  UNL1       -0.0613
     20 C           4.1760   -1.0005    0.0000 C.2     1  UNL1       -0.0588
     21 C           4.6760   -0.1345    0.0000 C.2     1  UNL1       -0.0504
     22 C           5.6760   -0.1345    0.0000 C.3     1  UNL1       -0.0397
     23 C           4.1760    0.7315    0.0000 C.2     1  UNL1       -0.0588
     24 C           4.6760    1.5976    0.0000 C.2     1  UNL1       -0.0615
     25 C           4.1760    2.4636    0.0000 C.2     1  UNL1       -0.0615
     26 C           4.6760    3.3296    0.0000 C.2     1  UNL1       -0.0588
     27 C           4.1760    4.1956    0.0000 C.2     1  UNL1       -0.0502
     28 C           3.1760    4.1956    0.0000 C.3     1  UNL1       -0.0397
     29 C           4.6760    5.0617    0.0000 C.2     1  UNL1       -0.0521
     30 C           4.1760    5.9277    0.0000 C.2     1  UNL1        0.0226
     31 C           4.6760    6.7937    0.0000 C.2     1  UNL1        0.3296
     32 H           5.2541   -8.2793    0.0000 H       1  UNL1        0.0271
     33 H           5.6526   -7.5890    0.0000 H       1  UNL1        0.0271
     34 H           2.6994   -7.5890    0.0000 H       1  UNL1        0.0294
     35 H           3.0980   -8.2793    0.0000 H       1  UNL1        0.0294
     36 H           3.7775   -8.6716    0.0000 H       1  UNL1        0.0266
     37 H           4.5746   -8.6716    0.0000 H       1  UNL1        0.0266
     38 H           6.0420   -7.3167    0.0000 H       1  UNL1        0.0236
     39 H           6.6620   -6.6967    0.0000 H       1  UNL1        0.0236
     40 H           6.0420   -6.0767    0.0000 H       1  UNL1        0.0236
     41 H           6.2066   -6.5288    0.0000 H       1  UNL1        0.0236
     42 H           6.2830   -5.6554    0.0000 H       1  UNL1        0.0236
     43 H           5.4096   -5.5789    0.0000 H       1  UNL1        0.0236
     44 H           3.1422   -5.5321    0.0000 H       1  UNL1        0.0258
     45 H           2.2687   -5.4557    0.0000 H       1  UNL1        0.0258
     46 H           2.1923   -6.3292    0.0000 H       1  UNL1        0.0258
     47 H           5.2586   -5.1186    0.0000 H       1  UNL1        0.0601
     48 H           3.0655   -5.2229    0.0000 H       1  UNL1        0.2107
     49 H           2.0000   -7.2336    0.0000 H       1  UNL1        0.2103
     50 H           3.5560   -4.4646    0.0000 H       1  UNL1        0.0618
     51 H           5.6760   -4.2186    0.0000 H       1  UNL1        0.0278
     52 H           6.2960   -3.5986    0.0000 H       1  UNL1        0.0278
     53 H           5.6760   -2.9786    0.0000 H       1  UNL1        0.0278
     54 H           3.5560   -2.7326    0.0000 H       1  UNL1        0.0620
     55 H           5.2960   -1.8665    0.0000 H       1  UNL1        0.0618
     56 H           3.5560   -1.0005    0.0000 H       1  UNL1        0.0620
     57 H           5.6760   -0.7545    0.0000 H       1  UNL1        0.0278
     58 H           6.2960   -0.1345    0.0000 H       1  UNL1        0.0278
     59 H           5.6760    0.4855    0.0000 H       1  UNL1        0.0278
     60 H           3.5560    0.7315    0.0000 H       1  UNL1        0.0620
     61 H           5.2960    1.5976    0.0000 H       1  UNL1        0.0618
     62 H           3.5560    2.4636    0.0000 H       1  UNL1        0.0618
     63 H           5.2960    3.3296    0.0000 H       1  UNL1        0.0620
     64 H           3.1760    4.8156    0.0000 H       1  UNL1        0.0278
     65 H           2.5560    4.1956    0.0000 H       1  UNL1        0.0278
     66 H           3.1760    3.5756    0.0000 H       1  UNL1        0.0278
     67 H           5.2960    5.0617    0.0000 H       1  UNL1        0.0622
     68 H           3.5560    5.9277    0.0000 H       1  UNL1        0.0689
     69 H           4.4860    8.1967    0.0000 H       1  UNL1        0.2954
@<TRIPOS>BOND
     1     6     1    1
     2     1    48    1
     3     7     2    1
     4     2    49    1
     5     3    31    1
     6     3    69    1
     7     4    31    2
     8     5     6    1
     9     5     8    1
    10     5    11    1
    11     5    12    1
    12     6     7    1
    13     6    14    1
    14     7     9    1
    15     7    13    1
    16     8    10    1
    17     8    32    1
    18     8    33    1
    19     9    10    1
    20     9    34    1
    21     9    35    1
    22    10    36    1
    23    10    37    1
    24    11    38    1
    25    11    39    1
    26    11    40    1
    27    12    41    1
    28    12    42    1
    29    12    43    1
    30    13    44    1
    31    13    45    1
    32    13    46    1
    33    14    15    2
    34    14    47    1
    35    15    16    1
    36    15    50    1
    37    16    17    1
    38    16    18    2
    39    17    51    1
    40    17    52    1
    41    17    53    1
    42    18    19    1
    43    18    54    1
    44    19    20    2
    45    19    55    1
    46    20    21    1
    47    20    56    1
    48    21    22    1
    49    21    23    2
    50    22    57    1
    51    22    58    1
    52    22    59    1
    53    23    24    1
    54    23    60    1
    55    24    25    2
    56    24    61    1
    57    25    26    1
    58    25    62    1
    59    26    27    2
    60    26    63    1
    61    27    28    1
    62    27    29    1
    63    28    64    1
    64    28    65    1
    65    28    66    1
    66    29    30    2
    67    29    67    1
    68    30    31    1
    69    30    68    1
