@<TRIPOS>MOLECULE
IMPHY004855
 36 38 0 0 0
SMALL
GASTEIGER

@<TRIPOS>ATOM
      1 O           6.3981   -2.0427    0.0000 O.2     1  UNL1       -0.4620
      2 O           2.8680   -2.0668    0.0000 O.3     1  UNL1       -0.4950
      3 O           6.3981    0.9573    0.0000 O.2     1  UNL1       -0.2864
      4 O          10.7282   -0.5427    0.0000 O.3     1  UNL1       -0.4914
      5 O          10.7282    1.4573    0.0000 O.3     1  UNL1       -0.5033
      6 C           7.2641   -0.5427    0.0000 C.ar    1  UNL1        0.0644
      7 C           5.5320   -0.5427    0.0000 C.ar    1  UNL1        0.0648
      8 C           8.1301   -0.0427    0.0000 C.ar    1  UNL1       -0.0076
      9 C           5.5320   -1.5427    0.0000 C.ar    1  UNL1        0.1419
     10 C           6.3981   -0.0427    0.0000 C.ar    1  UNL1        0.2001
     11 C           7.2641   -1.5427    0.0000 C.ar    1  UNL1        0.1038
     12 C           4.6381   -0.0080    0.0000 C.ar    1  UNL1       -0.0439
     13 C           8.9962   -0.5427    0.0000 C.ar    1  UNL1       -0.0084
     14 C           4.6381   -2.0773    0.0000 C.ar    1  UNL1        0.0231
     15 C           8.1301    0.9573    0.0000 C.ar    1  UNL1       -0.0501
     16 C           3.7320   -1.5635    0.0000 C.ar    1  UNL1        0.1236
     17 C           3.7320   -0.5219    0.0000 C.ar    1  UNL1       -0.0190
     18 C           9.8622   -0.0427    0.0000 C.ar    1  UNL1        0.1618
     19 C           8.9962    1.4573    0.0000 C.ar    1  UNL1       -0.0159
     20 C           9.8622    0.9573    0.0000 C.ar    1  UNL1        0.1585
     21 C           2.0000   -1.5702    0.0000 C.3     1  UNL1        0.0788
     22 C          10.7282   -1.5427    0.0000 C.3     1  UNL1        0.0790
     23 H           7.8010   -1.8527    0.0000 H       1  UNL1        0.1037
     24 H           4.6453    0.6120    0.0000 H       1  UNL1        0.0627
     25 H           8.9962   -1.1627    0.0000 H       1  UNL1        0.0661
     26 H           4.6453   -2.6973    0.0000 H       1  UNL1        0.0691
     27 H           7.5932    1.2673    0.0000 H       1  UNL1        0.0625
     28 H           3.1963   -0.2098    0.0000 H       1  UNL1        0.0654
     29 H           8.9962    2.0773    0.0000 H       1  UNL1        0.0655
     30 H          10.7282    2.0773    0.0000 H       1  UNL1        0.2923
     31 H           2.3079   -1.0320    0.0000 H       1  UNL1        0.0660
     32 H           1.4619   -1.2622    0.0000 H       1  UNL1        0.0660
     33 H           1.6921   -2.1083    0.0000 H       1  UNL1        0.0660
     34 H          10.1082   -1.5427    0.0000 H       1  UNL1        0.0660
     35 H          10.7282   -2.1627    0.0000 H       1  UNL1        0.0660
     36 H          11.3482   -1.5427    0.0000 H       1  UNL1        0.0660
@<TRIPOS>BOND
     1     1     9   ar
     2     1    11   ar
     3     2    16    1
     4     2    21    1
     5     3    10    2
     6     4    18    1
     7     4    22    1
     8     5    20    1
     9     5    30    1
    10     6     8    1
    11     6    10   ar
    12     6    11   ar
    13     7     9   ar
    14     7    10   ar
    15     7    12   ar
    16     8    13   ar
    17     8    15   ar
    18     9    14   ar
    19    11    23    1
    20    12    17   ar
    21    12    24    1
    22    13    18   ar
    23    13    25    1
    24    14    16   ar
    25    14    26    1
    26    15    19   ar
    27    15    27    1
    28    16    17   ar
    29    17    28    1
    30    18    20   ar
    31    19    20   ar
    32    19    29    1
    33    21    31    1
    34    21    32    1
    35    21    33    1
    36    22    34    1
    37    22    35    1
    38    22    36    1
