@<TRIPOS>MOLECULE
IMPHY015680
 30 31 0 0 0
SMALL
GASTEIGER

@<TRIPOS>ATOM
      1 O           6.3580   -1.2247    0.0000 O.3     1  UNL1       -0.4815
      2 O           2.8660   -1.1900    0.0000 O.3     1  UNL1       -0.5059
      3 O           2.0000    0.3100    0.0000 O.2     1  UNL1       -0.2922
      4 C           7.2641   -0.7108    0.0000 C.3     1  UNL1        0.1235
      5 C           7.2641    0.3308    0.0000 C.2     1  UNL1       -0.0409
      6 C           5.4641   -0.6900    0.0000 C.ar    1  UNL1        0.1323
      7 C           5.4641    0.3100    0.0000 C.ar    1  UNL1        0.0174
      8 C           8.2641   -0.7147    0.0000 C.3     1  UNL1       -0.0215
      9 C           7.7608   -1.5788    0.0000 C.3     1  UNL1       -0.0215
     10 C           6.3580    0.8447    0.0000 C.2     1  UNL1       -0.0513
     11 C           4.5981    0.8100    0.0000 C.ar    1  UNL1       -0.0371
     12 C           4.5981   -1.1900    0.0000 C.ar    1  UNL1        0.0229
     13 C           3.7320    0.3100    0.0000 C.ar    1  UNL1        0.0593
     14 C           3.7320   -0.6900    0.0000 C.ar    1  UNL1        0.1308
     15 C           2.8660    0.8100    0.0000 C.2     1  UNL1        0.1636
     16 C           2.8660    1.8100    0.0000 C.3     1  UNL1       -0.0013
     17 H           7.7998    0.6429    0.0000 H       1  UNL1        0.0611
     18 H           8.2617   -1.3347    0.0000 H       1  UNL1        0.0271
     19 H           8.8841   -0.7171    0.0000 H       1  UNL1        0.0271
     20 H           8.2665   -0.0947    0.0000 H       1  UNL1        0.0271
     21 H           7.2226   -1.8867    0.0000 H       1  UNL1        0.0271
     22 H           8.0687   -2.1169    0.0000 H       1  UNL1        0.0271
     23 H           8.2989   -1.2708    0.0000 H       1  UNL1        0.0271
     24 H           6.3509    1.4646    0.0000 H       1  UNL1        0.0623
     25 H           4.5981    1.4300    0.0000 H       1  UNL1        0.0633
     26 H           4.5981   -1.8100    0.0000 H       1  UNL1        0.0691
     27 H           3.4860    1.8100    0.0000 H       1  UNL1        0.0309
     28 H           2.8660    2.4300    0.0000 H       1  UNL1        0.0309
     29 H           2.2460    1.8100    0.0000 H       1  UNL1        0.0309
     30 H           2.8660   -1.8100    0.0000 H       1  UNL1        0.2922
@<TRIPOS>BOND
     1     1     4    1
     2     1     6    1
     3     2    14    1
     4     2    30    1
     5     3    15    2
     6     4     5    1
     7     4     8    1
     8     4     9    1
     9     5    10    2
    10     5    17    1
    11     6     7   ar
    12     6    12   ar
    13     7    10    1
    14     7    11   ar
    15     8    18    1
    16     8    19    1
    17     8    20    1
    18     9    21    1
    19     9    22    1
    20     9    23    1
    21    10    24    1
    22    11    13   ar
    23    11    25    1
    24    12    14   ar
    25    12    26    1
    26    13    14   ar
    27    13    15    1
    28    15    16    1
    29    16    27    1
    30    16    28    1
    31    16    29    1
