@<TRIPOS>MOLECULE
IMPHY001926
 29 29 0 0 0
SMALL
GASTEIGER

@<TRIPOS>ATOM
      1 O           4.5981    3.5000    0.0000 O.2     1  UNL1       -0.3010
      2 C           2.8660    0.5000    0.0000 C.3     1  UNL1       -0.0183
      3 C           3.7320    1.0000    0.0000 C.3     1  UNL1       -0.0400
      4 C           2.8660   -0.5000    0.0000 C.ar    1  UNL1       -0.0445
      5 C           2.0000    1.0000    0.0000 C.3     1  UNL1       -0.0584
      6 C           3.7320    2.0000    0.0000 C.3     1  UNL1        0.0033
      7 C           2.0000   -1.0000    0.0000 C.ar    1  UNL1       -0.0581
      8 C           3.7320   -1.0000    0.0000 C.ar    1  UNL1       -0.0581
      9 C           2.8660   -2.5000    0.0000 C.ar    1  UNL1       -0.0504
     10 C           2.0000   -2.0000    0.0000 C.ar    1  UNL1       -0.0586
     11 C           3.7320   -2.0000    0.0000 C.ar    1  UNL1       -0.0586
     12 C           4.5981    2.5000    0.0000 C.2     1  UNL1        0.1203
     13 C           2.8660   -3.5000    0.0000 C.3     1  UNL1       -0.0397
     14 H           2.8660    1.1200    0.0000 H       1  UNL1        0.0346
     15 H           3.9441    0.4174    0.0000 H       1  UNL1        0.0275
     16 H           4.3426    1.1077    0.0000 H       1  UNL1        0.0275
     17 H           2.3100    1.5369    0.0000 H       1  UNL1        0.0236
     18 H           1.4631    1.3100    0.0000 H       1  UNL1        0.0236
     19 H           1.6900    0.4631    0.0000 H       1  UNL1        0.0236
     20 H           3.5200    2.5826    0.0000 H       1  UNL1        0.0339
     21 H           3.1215    1.8923    0.0000 H       1  UNL1        0.0339
     22 H           1.4631   -0.6900    0.0000 H       1  UNL1        0.0620
     23 H           4.2690   -0.6900    0.0000 H       1  UNL1        0.0620
     24 H           1.4631   -2.3100    0.0000 H       1  UNL1        0.0620
     25 H           4.2690   -2.3100    0.0000 H       1  UNL1        0.0620
     26 H           5.1350    2.1900    0.0000 H       1  UNL1        0.1026
     27 H           2.2460   -3.5000    0.0000 H       1  UNL1        0.0278
     28 H           2.8660   -4.1200    0.0000 H       1  UNL1        0.0278
     29 H           3.4860   -3.5000    0.0000 H       1  UNL1        0.0278
@<TRIPOS>BOND
     1     1    12    2
     2     2     3    1
     3     2     4    1
     4     2     5    1
     5     2    14    1
     6     3     6    1
     7     3    15    1
     8     3    16    1
     9     4     7   ar
    10     4     8   ar
    11     5    17    1
    12     5    18    1
    13     5    19    1
    14     6    12    1
    15     6    20    1
    16     6    21    1
    17     7    10   ar
    18     7    22    1
    19     8    11   ar
    20     8    23    1
    21     9    10   ar
    22     9    11   ar
    23     9    13    1
    24    10    24    1
    25    11    25    1
    26    12    26    1
    27    13    27    1
    28    13    28    1
    29    13    29    1
