@<TRIPOS>MOLECULE
IMPHY001709
 124 133 0 0 0
SMALL
GASTEIGER

@<TRIPOS>ATOM
      1 O          10.3904    3.0293    0.0000 O.3     1  UNL1       -0.4527
      2 O           9.2098    0.8184    0.0000 O.3     1  UNL1       -0.3875
      3 O          10.4297    1.0297    0.0000 O.3     1  UNL1       -0.4466
      4 O           7.0014    3.0887    0.0000 O.3     1  UNL1       -0.4246
      5 O           7.0889    1.9672    0.0000 O.3     1  UNL1       -0.4585
      6 O           8.4435    4.0479    0.0000 O.2     1  UNL1       -0.2499
      7 O           7.8223    1.4784    0.0000 O.2     1  UNL1       -0.2970
      8 O          10.4888   -1.9697    0.0000 O.3     1  UNL1       -0.4476
      9 O           8.7917   -4.9687    0.0000 O.2     1  UNL1       -0.4178
     10 O          12.3237   -5.9895    0.0000 O.2     1  UNL1       -0.4178
     11 O          11.2858    1.5466    0.0000 O.2     1  UNL1       -0.2449
     12 O           5.9757    3.5161    0.0000 O.2     1  UNL1       -0.2449
     13 O           9.5934   -0.4871    0.0000 O.2     1  UNL1       -0.2448
     14 O           8.2039    6.5844    0.0000 O.3     1  UNL1       -0.4475
     15 O           5.0592    6.0031    0.0000 O.3     1  UNL1       -0.5027
     16 O           4.2318    5.4528    0.0000 O.3     1  UNL1       -0.5028
     17 O           6.7559    7.1506    0.0000 O.3     1  UNL1       -0.5009
     18 O           8.7868   -2.9834    0.0000 O.3     1  UNL1       -0.5009
     19 O           2.5176    4.3316    0.0000 O.3     1  UNL1       -0.5009
     20 O           2.6472    2.2874    0.0000 O.3     1  UNL1       -0.5032
     21 O          12.2295   -8.0218    0.0000 O.3     1  UNL1       -0.5009
     22 O          10.4888   -8.9676    0.0000 O.3     1  UNL1       -0.5032
     23 O          12.2402   -2.9354    0.0000 O.3     1  UNL1       -0.5008
     24 O          13.1878   -4.4445    0.0000 O.2     1  UNL1       -0.2445
     25 O           7.9256   -6.4687    0.0000 O.2     1  UNL1       -0.2445
     26 O          13.9129    0.0981    0.0000 O.3     1  UNL1       -0.5032
     27 O          13.9522   -1.9015    0.0000 O.3     1  UNL1       -0.5008
     28 O          14.7295    2.6147    0.0000 O.3     1  UNL1       -0.5032
     29 O          12.9387    5.5800    0.0000 O.3     1  UNL1       -0.5032
     30 O          14.6901    4.6143    0.0000 O.3     1  UNL1       -0.5009
     31 O           9.3051    4.9148    0.0000 O.3     1  UNL1       -0.5008
     32 O          11.3016    5.0337    0.0000 O.3     1  UNL1       -0.5008
     33 O          12.1968    6.8221    0.0000 O.3     1  UNL1       -0.5032
     34 O           8.1010    8.3133    0.0000 O.3     1  UNL1       -0.4770
     35 O           9.5468    9.2670    0.0000 O.2     1  UNL1       -0.2450
     36 C           8.5532    2.3193    0.0000 C.3     1  UNL1        0.1265
     37 C           9.5344    2.5124    0.0000 C.3     1  UNL1        0.1621
     38 C           8.3559    1.3390    0.0000 C.3     1  UNL1        0.1057
     39 C           9.5540    1.5125    0.0000 C.3     1  UNL1        0.1951
     40 C           7.4084    1.0196    0.0000 C.3     1  UNL1        0.1195
     41 C           7.9994    3.1520    0.0000 C.2     1  UNL1        0.3218
     42 C           8.6980    0.9956    0.0000 C.2     1  UNL1        0.1644
     43 C           6.9381    4.0867    0.0000 C.ar    1  UNL1        0.1467
     44 C           6.0421    4.5309    0.0000 C.ar    1  UNL1        0.0741
     45 C          11.2661    2.5464    0.0000 C.2     1  UNL1        0.3398
     46 C           5.2095    3.9771    0.0000 C.ar    1  UNL1        0.0486
     47 C           5.2728    2.9791    0.0000 C.ar    1  UNL1        0.0741
     48 C           6.1687    2.5349    0.0000 C.2     1  UNL1        0.3401
     49 C          10.4494    0.0299    0.0000 C.2     1  UNL1        0.3438
     50 C          10.5237   -4.9687    0.0000 C.ar    1  UNL1        0.0468
     51 C           7.8142    4.6501    0.0000 C.ar    1  UNL1        0.0276
     52 C          10.5237   -5.9687    0.0000 C.ar    1  UNL1        0.0468
     53 C           5.9602    5.5693    0.0000 C.ar    1  UNL1        0.1736
     54 C          12.1221    3.0634    0.0000 C.ar    1  UNL1        0.0661
     55 C          11.3251   -0.4530    0.0000 C.ar    1  UNL1        0.1085
     56 C           4.2835    4.4541    0.0000 C.ar    1  UNL1        0.1709
     57 C          11.4177   -4.4340    0.0000 C.ar    1  UNL1        0.0745
     58 C           9.6577   -4.4687    0.0000 C.ar    1  UNL1        0.1854
     59 C           7.7563    5.6901    0.0000 C.ar    1  UNL1        0.1770
     60 C           4.4145    2.3889    0.0000 C.ar    1  UNL1       -0.0017
     61 C           9.6577   -6.4687    0.0000 C.ar    1  UNL1        0.0744
     62 C           6.8230    6.1528    0.0000 C.ar    1  UNL1        0.2023
     63 C          11.4177   -6.5033    0.0000 C.ar    1  UNL1        0.1854
     64 C          11.3448   -1.4528    0.0000 C.ar    1  UNL1        0.1876
     65 C          10.5085   -2.9695    0.0000 C.ar    1  UNL1        0.1743
     66 C           9.6565   -3.4770    0.0000 C.ar    1  UNL1        0.2031
     67 C          11.3799   -3.4430    0.0000 C.ar    1  UNL1       -0.0009
     68 C           3.4118    3.8840    0.0000 C.ar    1  UNL1        0.2012
     69 C           3.4777    2.8444    0.0000 C.ar    1  UNL1        0.1628
     70 C          12.3237   -4.9479    0.0000 C.ar    1  UNL1        0.3454
     71 C          12.1811    0.0640    0.0000 C.ar    1  UNL1        0.0013
     72 C          12.1024    4.0632    0.0000 C.ar    1  UNL1       -0.0023
     73 C          12.9978    2.5806    0.0000 C.ar    1  UNL1       -0.0023
     74 C          11.3799   -7.4943    0.0000 C.ar    1  UNL1        0.2022
     75 C           8.7917   -5.9687    0.0000 C.ar    1  UNL1        0.3454
     76 C           9.6565   -7.4604    0.0000 C.ar    1  UNL1       -0.0017
     77 C          12.2205   -1.9356    0.0000 C.ar    1  UNL1        0.2060
     78 C          10.5085   -7.9678    0.0000 C.ar    1  UNL1        0.1628
     79 C          13.0569   -0.4189    0.0000 C.ar    1  UNL1        0.1630
     80 C          13.0765   -1.4187    0.0000 C.ar    1  UNL1        0.2044
     81 C          13.8538    3.0975    0.0000 C.ar    1  UNL1        0.1628
     82 C          12.9584    4.5802    0.0000 C.ar    1  UNL1        0.1628
     83 C          13.8341    4.0973    0.0000 C.ar    1  UNL1        0.2006
     84 C           9.2022    6.6438    0.0000 C.ar    1  UNL1        0.1876
     85 C           9.6498    7.5380    0.0000 C.ar    1  UNL1        0.1083
     86 C           9.7527    5.8090    0.0000 C.ar    1  UNL1        0.2060
     87 C          10.6480    7.5974    0.0000 C.ar    1  UNL1        0.0013
     88 C          10.7510    5.8684    0.0000 C.ar    1  UNL1        0.2044
     89 C          11.1986    6.7627    0.0000 C.ar    1  UNL1        0.1630
     90 C           9.0992    8.3728    0.0000 C.2     1  UNL1        0.3406
     91 H           8.7916    2.8916    0.0000 H       1  UNL1        0.0479
     92 H           9.3109    3.0907    0.0000 H       1  UNL1        0.0785
     93 H           8.2871    0.7229    0.0000 H       1  UNL1        0.0637
     94 H          10.0848    1.8331    0.0000 H       1  UNL1        0.0850
     95 H           6.8208    0.8215    0.0000 H       1  UNL1        0.0724
     96 H           7.6064    0.4320    0.0000 H       1  UNL1        0.0724
     97 H           9.1949    0.1986    0.0000 H       1  UNL1        0.2100
     98 H           8.3987    0.4527    0.0000 H       1  UNL1        0.1067
     99 H           8.3664    4.3683    0.0000 H       1  UNL1        0.0693
    100 H           4.4608    1.7707    0.0000 H       1  UNL1        0.0664
    101 H          11.9066   -3.1160    0.0000 H       1  UNL1        0.0664
    102 H          12.1689    0.6839    0.0000 H       1  UNL1        0.0665
    103 H          11.5595    4.3626    0.0000 H       1  UNL1        0.0663
    104 H          13.0100    1.9607    0.0000 H       1  UNL1        0.0663
    105 H           9.1172   -7.7664    0.0000 H       1  UNL1        0.0664
    106 H           5.0128    6.6214    0.0000 H       1  UNL1        0.2923
    107 H           3.6795    5.7346    0.0000 H       1  UNL1        0.2923
    108 H           6.1994    7.4238    0.0000 H       1  UNL1        0.2924
    109 H           8.7822   -2.3634    0.0000 H       1  UNL1        0.2924
    110 H           2.0000    3.9902    0.0000 H       1  UNL1        0.2924
    111 H           2.6888    1.6688    0.0000 H       1  UNL1        0.2923
    112 H          12.2096   -8.6414    0.0000 H       1  UNL1        0.2924
    113 H           9.9459   -9.2670    0.0000 H       1  UNL1        0.2923
    114 H          12.7832   -3.2348    0.0000 H       1  UNL1        0.2924
    115 H          13.9007    0.7180    0.0000 H       1  UNL1        0.2923
    116 H          14.4830   -1.5810    0.0000 H       1  UNL1        0.2924
    117 H          14.7417    1.9948    0.0000 H       1  UNL1        0.2923
    118 H          13.4694    5.9005    0.0000 H       1  UNL1        0.2923
    119 H          14.6779    5.2342    0.0000 H       1  UNL1        0.2924
    120 H          10.9256    8.1518    0.0000 H       1  UNL1        0.0665
    121 H           9.6465    4.3972    0.0000 H       1  UNL1        0.2924
    122 H          11.9205    5.0705    0.0000 H       1  UNL1        0.2924
    123 H          12.4744    7.3765    0.0000 H       1  UNL1        0.2923
    124 H           7.7596    8.8309    0.0000 H       1  UNL1        0.2954
@<TRIPOS>BOND
     1     1    37    1
     2     1    45    1
     3     2    38    1
     4     2    97    1
     5     3    39    1
     6     3    49    1
     7     4    41    1
     8     4    43    1
     9     5    40    1
    10     5    48    1
    11     6    41    2
    12     7    42    2
    13     8    64    1
    14     8    65    1
    15     9    58   ar
    16     9    75   ar
    17    10    63   ar
    18    10    70   ar
    19    11    45    2
    20    12    48    2
    21    13    49    2
    22    14    59    1
    23    14    84    1
    24    15    53    1
    25    15   106    1
    26    16    56    1
    27    16   107    1
    28    17    62    1
    29    17   108    1
    30    18    66    1
    31    18   109    1
    32    19    68    1
    33    19   110    1
    34    20    69    1
    35    20   111    1
    36    21    74    1
    37    21   112    1
    38    22    78    1
    39    22   113    1
    40    23    77    1
    41    23   114    1
    42    24    70    2
    43    25    75    2
    44    26    79    1
    45    26   115    1
    46    27    80    1
    47    27   116    1
    48    28    81    1
    49    28   117    1
    50    29    82    1
    51    29   118    1
    52    30    83    1
    53    30   119    1
    54    31    86    1
    55    31   121    1
    56    32    88    1
    57    32   122    1
    58    33    89    1
    59    33   123    1
    60    34    90    1
    61    34   124    1
    62    35    90    2
    63    36    37    1
    64    36    38    1
    65    36    41    1
    66    36    91    1
    67    37    39    1
    68    37    92    1
    69    38    40    1
    70    38    93    1
    71    39    42    1
    72    39    94    1
    73    40    95    1
    74    40    96    1
    75    42    98    1
    76    43    44   ar
    77    43    51   ar
    78    44    46    1
    79    44    53   ar
    80    45    54    1
    81    46    47   ar
    82    46    56   ar
    83    47    48    1
    84    47    60   ar
    85    49    55    1
    86    50    52   ar
    87    50    57   ar
    88    50    58   ar
    89    51    59   ar
    90    51    99    1
    91    52    61   ar
    92    52    63   ar
    93    53    62   ar
    94    54    72   ar
    95    54    73   ar
    96    55    64   ar
    97    55    71   ar
    98    56    68   ar
    99    57    67   ar
   100    57    70   ar
   101    58    66   ar
   102    59    62   ar
   103    60    69   ar
   104    60   100    1
   105    61    75   ar
   106    61    76   ar
   107    63    74   ar
   108    64    77   ar
   109    65    66   ar
   110    65    67   ar
   111    67   101    1
   112    68    69   ar
   113    71    79   ar
   114    71   102    1
   115    72    82   ar
   116    72   103    1
   117    73    81   ar
   118    73   104    1
   119    74    78   ar
   120    76    78   ar
   121    76   105    1
   122    77    80   ar
   123    79    80   ar
   124    81    83   ar
   125    82    83   ar
   126    84    85   ar
   127    84    86   ar
   128    85    87   ar
   129    85    90    1
   130    86    88   ar
   131    87    89   ar
   132    87   120    1
   133    88    89   ar
