@<TRIPOS>MOLECULE
IMPHY008129
 79 81 0 0 0
SMALL
GASTEIGER

@<TRIPOS>ATOM
      1 O           6.4227   -0.6539    0.0000 O.3     1  UNL1       -0.3842
      2 O           4.2320    2.0622    0.0000 O.3     1  UNL1       -0.4569
      3 O           4.9832   -1.9731    0.0000 O.3     1  UNL1       -0.4580
      4 O           3.2247   -3.7788    0.0000 O.3     1  UNL1       -0.4602
      5 O           5.5212    3.2189    0.0000 O.2     1  UNL1       -0.2450
      6 O           4.6907   -0.6539    0.0000 O.2     1  UNL1       -0.2923
      7 O           3.2798   -1.1788    0.0000 O.2     1  UNL1       -0.2512
      8 O           3.6730   -5.4518    0.0000 O.2     1  UNL1       -0.2512
      9 C           5.5567   -0.1539    0.0000 C.3     1  UNL1        0.1132
     10 C           4.6907    0.3461    0.0000 C.3     1  UNL1        0.0474
     11 C           5.8886    1.4209    0.0000 C.3     1  UNL1       -0.0033
     12 C           6.2937    0.5131    0.0000 C.3     1  UNL1       -0.0138
     13 C           4.8999    1.3179    0.0000 C.3     1  UNL1        0.1150
     14 C           5.5567   -1.1539    0.0000 C.3     1  UNL1        0.1381
     15 C           5.5743   -2.0881    0.0000 C.3     1  UNL1        0.0142
     16 C           3.8246   -0.1539    0.0000 C.2     1  UNL1       -0.0684
     17 C           6.3886    2.2870    0.0000 C.3     1  UNL1       -0.0589
     18 C           3.8246   -1.1539    0.0000 C.2     1  UNL1       -0.0114
     19 C           6.2814   -2.7952    0.0000 C.2     1  UNL1       -0.0809
     20 C           5.5434   -3.0876    0.0000 C.3     1  UNL1       -0.0555
     21 C           5.0567   -4.0200    0.0000 C.3     1  UNL1        0.0206
     22 C           6.0226   -3.7612    0.0000 C.2     1  UNL1       -0.0784
     23 C           4.1907   -3.5200    0.0000 C.3     1  UNL1        0.1185
     24 C           4.5427    3.0127    0.0000 C.2     1  UNL1        0.3395
     25 C           4.6907   -1.6539    0.0000 C.2     1  UNL1        0.1622
     26 C           4.6907   -2.6539    0.0000 C.3     1  UNL1        0.0481
     27 C           2.9586   -1.6539    0.0000 C.3     1  UNL1       -0.0367
     28 C           3.9869   -1.8859    0.0000 C.2     1  UNL1        0.3043
     29 C           5.5184   -4.9070    0.0000 C.3     1  UNL1       -0.0529
     30 C           4.6740   -4.9438    0.0000 C.3     1  UNL1       -0.0529
     31 C           3.8748    3.7570    0.0000 C.ar    1  UNL1        0.0590
     32 C           3.4134   -2.7051    0.0000 C.3     1  UNL1        0.0332
     33 C           4.1855    4.7075    0.0000 C.ar    1  UNL1       -0.0478
     34 C           2.8963    3.5508    0.0000 C.ar    1  UNL1       -0.0478
     35 C           2.9659   -4.7447    0.0000 C.2     1  UNL1        0.3042
     36 C           3.5177    5.4518    0.0000 C.ar    1  UNL1       -0.0610
     37 C           2.2285    4.2951    0.0000 C.ar    1  UNL1       -0.0610
     38 C           2.5392    5.2456    0.0000 C.ar    1  UNL1       -0.0617
     39 C           2.0000   -5.0035    0.0000 C.3     1  UNL1        0.0332
     40 H           4.0037    0.8466    0.0000 H       1  UNL1        0.0409
     41 H           5.5512    1.9410    0.0000 H       1  UNL1        0.0335
     42 H           6.6592    0.0123    0.0000 H       1  UNL1        0.0298
     43 H           6.8302    0.8239    0.0000 H       1  UNL1        0.0298
     44 H           5.1228    1.8964    0.0000 H       1  UNL1        0.0743
     45 H           4.9654   -0.9675    0.0000 H       1  UNL1        0.0769
     46 H           6.1449   -1.8455    0.0000 H       1  UNL1        0.0377
     47 H           3.2877    0.1561    0.0000 H       1  UNL1        0.0581
     48 H           6.9255    1.9770    0.0000 H       1  UNL1        0.0234
     49 H           6.6986    2.8239    0.0000 H       1  UNL1        0.0234
     50 H           5.8517    2.5970    0.0000 H       1  UNL1        0.0234
     51 H           6.9597   -0.3439    0.0000 H       1  UNL1        0.2103
     52 H           6.8803   -2.6348    0.0000 H       1  UNL1        0.0573
     53 H           4.9237   -3.0684    0.0000 H       1  UNL1        0.0237
     54 H           5.5242   -3.7073    0.0000 H       1  UNL1        0.0237
     55 H           6.1631   -3.1068    0.0000 H       1  UNL1        0.0237
     56 H           6.4610   -4.1996    0.0000 H       1  UNL1        0.0576
     57 H           4.1097   -4.1347    0.0000 H       1  UNL1        0.0747
     58 H           5.0892   -3.1289    0.0000 H       1  UNL1        0.0381
     59 H           4.0918   -2.4935    0.0000 H       1  UNL1        0.0381
     60 H           2.6486   -1.1170    0.0000 H       1  UNL1        0.0278
     61 H           2.4217   -1.9639    0.0000 H       1  UNL1        0.0278
     62 H           3.2686   -2.1909    0.0000 H       1  UNL1        0.0278
     63 H           4.9685   -5.1933    0.0000 H       1  UNL1        0.0239
     64 H           5.8047   -5.4569    0.0000 H       1  UNL1        0.0239
     65 H           6.0684   -4.6207    0.0000 H       1  UNL1        0.0239
     66 H           4.1012   -4.7066    0.0000 H       1  UNL1        0.0239
     67 H           4.4368   -5.5166    0.0000 H       1  UNL1        0.0239
     68 H           5.2468   -5.1811    0.0000 H       1  UNL1        0.0239
     69 H           2.9055   -2.3495    0.0000 H       1  UNL1        0.0342
     70 H           3.0578   -3.2130    0.0000 H       1  UNL1        0.0342
     71 H           3.9212   -3.0607    0.0000 H       1  UNL1        0.0342
     72 H           4.7922    4.8354    0.0000 H       1  UNL1        0.0626
     73 H           2.7037    2.9615    0.0000 H       1  UNL1        0.0626
     74 H           3.7103    6.0411    0.0000 H       1  UNL1        0.0618
     75 H           1.6218    4.1672    0.0000 H       1  UNL1        0.0618
     76 H           1.8395   -4.4047    0.0000 H       1  UNL1        0.0342
     77 H           1.4011   -5.1640    0.0000 H       1  UNL1        0.0342
     78 H           2.1605   -5.6024    0.0000 H       1  UNL1        0.0342
     79 H           2.1251    5.7071    0.0000 H       1  UNL1        0.0618
@<TRIPOS>BOND
     1     9     1    1
     2     1    51    1
     3    13     2    1
     4     2    24    1
     5    14     3    1
     6     3    28    1
     7    23     4    1
     8     4    35    1
     9     5    24    2
    10     6    25    2
    11     7    28    2
    12     8    35    2
    13     9    10    1
    14     9    12    1
    15     9    14    1
    16    10    13    1
    17    10    16    1
    18    10    40    1
    19    11    12    1
    20    11    13    1
    21    11    17    1
    22    11    41    1
    23    12    42    1
    24    12    43    1
    25    13    44    1
    26    14    15    1
    27    14    45    1
    28    15    19    1
    29    15    20    1
    30    15    46    1
    31    16    18    2
    32    16    47    1
    33    17    48    1
    34    17    49    1
    35    17    50    1
    36    18    25    1
    37    18    27    1
    38    19    22    2
    39    19    52    1
    40    20    53    1
    41    20    54    1
    42    20    55    1
    43    21    22    1
    44    21    23    1
    45    21    29    1
    46    21    30    1
    47    22    56    1
    48    23    26    1
    49    23    57    1
    50    24    31    1
    51    25    26    1
    52    26    58    1
    53    26    59    1
    54    27    60    1
    55    27    61    1
    56    27    62    1
    57    28    32    1
    58    29    63    1
    59    29    64    1
    60    29    65    1
    61    30    66    1
    62    30    67    1
    63    30    68    1
    64    31    33   ar
    65    31    34   ar
    66    32    69    1
    67    32    70    1
    68    32    71    1
    69    33    36   ar
    70    33    72    1
    71    34    37   ar
    72    34    73    1
    73    35    39    1
    74    36    38   ar
    75    36    74    1
    76    37    38   ar
    77    37    75    1
    78    38    79    1
    79    39    76    1
    80    39    77    1
    81    39    78    1
