@<TRIPOS>MOLECULE
IMPHY007058
 15 15 0 0 0
SMALL
GASTEIGER

@<TRIPOS>ATOM
      1 O           4.5981   -1.1550    0.0000 O.2     1  UNL1       -0.4642
      2 O           3.7320    1.3450    0.0000 O.3     1  UNL1       -0.5010
      3 O           2.0000    0.3450    0.0000 O.2     1  UNL1       -0.2838
      4 C           4.5981   -0.1550    0.0000 C.ar    1  UNL1        0.1467
      5 C           3.7320    0.3450    0.0000 C.ar    1  UNL1        0.2022
      6 C           5.4641    0.3450    0.0000 C.3     1  UNL1       -0.0026
      7 C           2.8660   -0.1550    0.0000 C.ar    1  UNL1        0.2263
      8 C           2.8660   -1.1550    0.0000 C.ar    1  UNL1        0.0237
      9 C           3.7320   -1.6550    0.0000 C.ar    1  UNL1        0.0959
     10 H           5.7741   -0.1919    0.0000 H       1  UNL1        0.0309
     11 H           6.0010    0.6550    0.0000 H       1  UNL1        0.0309
     12 H           5.1541    0.8819    0.0000 H       1  UNL1        0.0309
     13 H           2.3291   -1.4650    0.0000 H       1  UNL1        0.0688
     14 H           3.7320   -2.2750    0.0000 H       1  UNL1        0.1030
     15 H           4.2690    1.6550    0.0000 H       1  UNL1        0.2924
@<TRIPOS>BOND
     1     1     4   ar
     2     1     9   ar
     3     2     5    1
     4     2    15    1
     5     3     7    2
     6     4     5   ar
     7     4     6    1
     8     5     7   ar
     9     6    10    1
    10     6    11    1
    11     6    12    1
    12     7     8   ar
    13     8     9   ar
    14     8    13    1
    15     9    14    1
