@<TRIPOS>MOLECULE
IMPHY012763
 29 28 0 0 0
SMALL
GASTEIGER

@<TRIPOS>ATOM
      1 O          10.6603    0.2500    0.0000 O.2     1  UNL1       -0.3010
      2 C           7.1962    0.2500    0.0000 C.3     1  UNL1       -0.0492
      3 C           8.0622   -0.2500    0.0000 C.3     1  UNL1       -0.0464
      4 C           6.3301   -0.2500    0.0000 C.3     1  UNL1       -0.0348
      5 C           8.9282    0.2500    0.0000 C.3     1  UNL1        0.0028
      6 C           5.4641    0.2500    0.0000 C.2     1  UNL1       -0.0879
      7 C           3.7320    0.2500    0.0000 C.3     1  UNL1       -0.0350
      8 C           4.5981   -0.2500    0.0000 C.2     1  UNL1       -0.0879
      9 C           2.8660   -0.2500    0.0000 C.3     1  UNL1       -0.0525
     10 C           2.0000    0.2500    0.0000 C.3     1  UNL1       -0.0650
     11 C           9.7942   -0.2500    0.0000 C.2     1  UNL1        0.1203
     12 H           7.5947    0.7249    0.0000 H       1  UNL1        0.0268
     13 H           6.7976    0.7249    0.0000 H       1  UNL1        0.0268
     14 H           7.6636   -0.7249    0.0000 H       1  UNL1        0.0269
     15 H           8.4607   -0.7249    0.0000 H       1  UNL1        0.0269
     16 H           5.9316   -0.7249    0.0000 H       1  UNL1        0.0307
     17 H           6.7287   -0.7249    0.0000 H       1  UNL1        0.0307
     18 H           9.3267    0.7249    0.0000 H       1  UNL1        0.0339
     19 H           8.5297    0.7249    0.0000 H       1  UNL1        0.0339
     20 H           5.4641    0.8700    0.0000 H       1  UNL1        0.0569
     21 H           4.1306    0.7249    0.0000 H       1  UNL1        0.0307
     22 H           3.3335    0.7249    0.0000 H       1  UNL1        0.0307
     23 H           4.5981   -0.8700    0.0000 H       1  UNL1        0.0569
     24 H           2.4675   -0.7249    0.0000 H       1  UNL1        0.0266
     25 H           3.2646   -0.7249    0.0000 H       1  UNL1        0.0266
     26 H           2.3100    0.7869    0.0000 H       1  UNL1        0.0230
     27 H           1.4631    0.5600    0.0000 H       1  UNL1        0.0230
     28 H           1.6900   -0.2869    0.0000 H       1  UNL1        0.0230
     29 H           9.7942   -0.8700    0.0000 H       1  UNL1        0.1026
@<TRIPOS>BOND
     1     1    11    2
     2     2     3    1
     3     2     4    1
     4     2    12    1
     5     2    13    1
     6     3     5    1
     7     3    14    1
     8     3    15    1
     9     4     6    1
    10     4    16    1
    11     4    17    1
    12     5    11    1
    13     5    18    1
    14     5    19    1
    15     6     8    2
    16     6    20    1
    17     7     8    1
    18     7     9    1
    19     7    21    1
    20     7    22    1
    21     8    23    1
    22     9    10    1
    23     9    24    1
    24     9    25    1
    25    10    26    1
    26    10    27    1
    27    10    28    1
    28    11    29    1
