@<TRIPOS>MOLECULE
IMPHY009663
 39 40 0 0 0
SMALL
GASTEIGER

@<TRIPOS>ATOM
      1 O           4.5981   -0.2500    0.0000 O.2     1  UNL1       -0.2706
      2 N           5.4641    1.2500    0.0000 N.am    1  UNL1       -0.3007
      3 C           6.3301    0.7500    0.0000 C.3     1  UNL1        0.0186
      4 C           7.1962    1.2500    0.0000 C.3     1  UNL1       -0.0118
      5 C           8.0622    0.7500    0.0000 C.ar    1  UNL1       -0.0459
      6 C           5.4641    2.2500    0.0000 C.3     1  UNL1        0.0034
      7 C           4.5981    0.7500    0.0000 C.2     1  UNL1        0.2392
      8 C           8.0622   -0.2500    0.0000 C.ar    1  UNL1       -0.0585
      9 C           8.9282    1.2500    0.0000 C.ar    1  UNL1       -0.0585
     10 C           8.9282   -0.7500    0.0000 C.ar    1  UNL1       -0.0615
     11 C           9.7942    0.7500    0.0000 C.ar    1  UNL1       -0.0615
     12 C           3.7320    1.2500    0.0000 C.2     1  UNL1        0.0009
     13 C           9.7942   -0.2500    0.0000 C.ar    1  UNL1       -0.0617
     14 C           2.8660    0.7500    0.0000 C.2     1  UNL1       -0.0497
     15 C           2.8660   -0.2500    0.0000 C.ar    1  UNL1       -0.0249
     16 C           2.0000   -0.7500    0.0000 C.ar    1  UNL1       -0.0546
     17 C           3.7320   -0.7500    0.0000 C.ar    1  UNL1       -0.0546
     18 C           2.0000   -1.7500    0.0000 C.ar    1  UNL1       -0.0612
     19 C           3.7320   -1.7500    0.0000 C.ar    1  UNL1       -0.0612
     20 C           2.8660   -2.2500    0.0000 C.ar    1  UNL1       -0.0617
     21 H           5.9316    0.2751    0.0000 H       1  UNL1        0.0468
     22 H           6.7287    0.2751    0.0000 H       1  UNL1        0.0468
     23 H           7.5947    1.7250    0.0000 H       1  UNL1        0.0328
     24 H           6.7976    1.7250    0.0000 H       1  UNL1        0.0328
     25 H           6.0841    2.2500    0.0000 H       1  UNL1        0.0429
     26 H           5.4641    2.8700    0.0000 H       1  UNL1        0.0429
     27 H           4.8441    2.2500    0.0000 H       1  UNL1        0.0429
     28 H           7.5252   -0.5600    0.0000 H       1  UNL1        0.0620
     29 H           8.9282    1.8700    0.0000 H       1  UNL1        0.0620
     30 H           8.9282   -1.3700    0.0000 H       1  UNL1        0.0618
     31 H          10.3312    1.0600    0.0000 H       1  UNL1        0.0618
     32 H           3.7320    1.8700    0.0000 H       1  UNL1        0.0670
     33 H          10.3312   -0.5600    0.0000 H       1  UNL1        0.0618
     34 H           2.3291    1.0600    0.0000 H       1  UNL1        0.0625
     35 H           1.4631   -0.4400    0.0000 H       1  UNL1        0.0623
     36 H           4.2690   -0.4400    0.0000 H       1  UNL1        0.0623
     37 H           1.4631   -2.0600    0.0000 H       1  UNL1        0.0618
     38 H           4.2690   -2.0600    0.0000 H       1  UNL1        0.0618
     39 H           2.8660   -2.8700    0.0000 H       1  UNL1        0.0618
@<TRIPOS>BOND
     1     1     7    2
     2     2     3    1
     3     2     6    1
     4     2     7   am
     5     3     4    1
     6     3    21    1
     7     3    22    1
     8     4     5    1
     9     4    23    1
    10     4    24    1
    11     5     8   ar
    12     5     9   ar
    13     6    25    1
    14     6    26    1
    15     6    27    1
    16     7    12    1
    17     8    10   ar
    18     8    28    1
    19     9    11   ar
    20     9    29    1
    21    10    13   ar
    22    10    30    1
    23    11    13   ar
    24    11    31    1
    25    12    14    2
    26    12    32    1
    27    13    33    1
    28    14    15    1
    29    14    34    1
    30    15    16   ar
    31    15    17   ar
    32    16    18   ar
    33    16    35    1
    34    17    19   ar
    35    17    36    1
    36    18    20   ar
    37    18    37    1
    38    19    20   ar
    39    19    38    1
    40    20    39    1
