@<TRIPOS>MOLECULE
IMPHY001320
 46 50 0 0 0
SMALL
GASTEIGER

@<TRIPOS>ATOM
      1 O           5.0333    0.5374    0.0000 O.3     1  UNL1       -0.4565
      2 O           8.7947   -1.7746    0.0000 O.3     1  UNL1       -0.3843
      3 O           6.1102    1.7658    0.0000 O.3     1  UNL1       -0.4804
      4 O           2.6115    1.0940    0.0000 O.2     1  UNL1       -0.2498
      5 O           4.3842    1.6203    0.0000 O.2     1  UNL1       -0.2507
      6 C           6.1014   -0.3508    0.0000 C.3     1  UNL1       -0.0028
      7 C           5.7995   -1.2180    0.0000 C.3     1  UNL1        0.0065
      8 C           4.8874   -1.1965    0.0000 C.3     1  UNL1        0.1251
      9 C           4.6244   -0.3224    0.0000 C.3     1  UNL1        0.0319
     10 C           5.3732    0.1984    0.0000 C.3     1  UNL1        0.0704
     11 C           6.7974   -1.1832    0.0000 C.3     1  UNL1       -0.0130
     12 C           7.8503   -1.4458    0.0000 C.3     1  UNL1        0.0874
     13 C           3.7072   -0.1064    0.0000 C.3     1  UNL1        0.0902
     14 C           6.9683   -0.0462    0.0000 C.3     1  UNL1       -0.0224
     15 C           6.2897   -1.9946    0.0000 C.3     1  UNL1       -0.0431
     16 C           7.2020   -2.0958    0.0000 C.3     1  UNL1       -0.0197
     17 C           4.2496   -1.9110    0.0000 C.3     1  UNL1        0.0060
     18 C           7.7459   -0.5332    0.0000 C.2     1  UNL1       -0.0449
     19 C           3.4423    0.5374    0.0000 C.2     1  UNL1        0.3178
     20 C           5.2892    1.1949    0.0000 C.2     1  UNL1        0.3088
     21 C           3.0620   -0.7926    0.0000 C.2     1  UNL1       -0.0710
     22 C           3.3335   -1.6953    0.0000 C.2     1  UNL1       -0.0831
     23 C           2.7237    0.0748    0.0000 C.3     1  UNL1       -0.0455
     24 C           8.5495    0.0619    0.0000 C.2     1  UNL1       -0.0967
     25 H           5.3803   -1.9575    0.0000 H       1  UNL1        0.0345
     26 H           4.1894    0.4078    0.0000 H       1  UNL1        0.0361
     27 H           5.9160    0.4980    0.0000 H       1  UNL1        0.0423
     28 H           6.8403   -1.8018    0.0000 H       1  UNL1        0.0302
     29 H           6.2223   -1.4148    0.0000 H       1  UNL1        0.0302
     30 H           6.6377    0.4783    0.0000 H       1  UNL1        0.0316
     31 H           7.4061    0.3928    0.0000 H       1  UNL1        0.0316
     32 H           6.3603   -2.6105    0.0000 H       1  UNL1        0.0270
     33 H           5.7050   -2.2005    0.0000 H       1  UNL1        0.0270
     34 H           7.7275   -2.4249    0.0000 H       1  UNL1        0.0296
     35 H           6.9982   -2.6813    0.0000 H       1  UNL1        0.0296
     36 H           4.7740   -2.2419    0.0000 H       1  UNL1        0.0346
     37 H           4.0099   -2.4828    0.0000 H       1  UNL1        0.0346
     38 H           2.4585   -0.6505    0.0000 H       1  UNL1        0.0580
     39 H           2.9086   -2.1468    0.0000 H       1  UNL1        0.0571
     40 H           2.6114   -0.5350    0.0000 H       1  UNL1        0.0243
     41 H           2.1140    0.1871    0.0000 H       1  UNL1        0.0243
     42 H           2.8360    0.6845    0.0000 H       1  UNL1        0.0243
     43 H           8.9109   -2.3836    0.0000 H       1  UNL1        0.2106
     44 H           8.4791    0.6779    0.0000 H       1  UNL1        0.0535
     45 H           9.1182   -0.1851    0.0000 H       1  UNL1        0.0535
     46 H           6.0581    2.3836    0.0000 H       1  UNL1        0.2951
@<TRIPOS>BOND
     1     8     1    1
     2     1    19    1
     3    12     2    1
     4     2    43    1
     5     3    20    1
     6     3    46    1
     7     4    19    2
     8     5    20    2
     9     6     7    1
    10     6    10    1
    11     6    11    1
    12     6    14    1
    13     7     8    1
    14     7    15    1
    15     7    25    1
    16     8     9    1
    17     8    17    1
    18     9    10    1
    19     9    13    1
    20     9    26    1
    21    10    20    1
    22    10    27    1
    23    11    12    1
    24    11    28    1
    25    11    29    1
    26    12    16    1
    27    12    18    1
    28    13    19    1
    29    13    21    1
    30    13    23    1
    31    14    18    1
    32    14    30    1
    33    14    31    1
    34    15    16    1
    35    15    32    1
    36    15    33    1
    37    16    34    1
    38    16    35    1
    39    17    22    1
    40    17    36    1
    41    17    37    1
    42    18    24    2
    43    21    22    2
    44    21    38    1
    45    22    39    1
    46    23    40    1
    47    23    41    1
    48    23    42    1
    49    24    44    1
    50    24    45    1
