@<TRIPOS>MOLECULE
IMPHY008193
 44 45 0 0 0
SMALL
GASTEIGER

@<TRIPOS>ATOM
      1 O           4.4381    0.7005    0.0000 O.3     1  UNL1       -0.3457
      2 O           7.9497   -0.3927    0.0000 O.3     1  UNL1       -0.3405
      3 O           6.2177    0.6073    0.0000 O.3     1  UNL1       -0.3460
      4 O           4.4769    3.2879    0.0000 O.3     1  UNL1       -0.3812
      5 O           5.9903    2.7709    0.0000 O.3     1  UNL1       -0.3837
      6 O           6.2177   -2.3927    0.0000 O.3     1  UNL1       -0.3865
      7 O           7.9497   -3.3927    0.0000 O.3     1  UNL1       -0.3864
      8 O           9.6818   -0.3927    0.0000 O.3     1  UNL1       -0.3520
      9 O           9.6818   -2.3927    0.0000 O.3     1  UNL1       -0.3841
     10 O           2.5369    2.3097    0.0000 O.3     1  UNL1       -0.3920
     11 C           4.2690    2.3097    0.0000 C.3     1  UNL1        0.1425
     12 C           5.2471    2.1018    0.0000 C.3     1  UNL1        0.1387
     13 C           7.0837   -0.8927    0.0000 C.3     1  UNL1        0.1134
     14 C           7.0837   -1.8927    0.0000 C.3     1  UNL1        0.1119
     15 C           5.3517    1.1073    0.0000 C.3     1  UNL1        0.1880
     16 C           7.9497   -2.3927    0.0000 C.3     1  UNL1        0.1141
     17 C           8.8158   -1.8927    0.0000 C.3     1  UNL1        0.1341
     18 C           3.7690    1.4437    0.0000 C.3     1  UNL1        0.0843
     19 C           6.2177   -0.3927    0.0000 C.3     1  UNL1        0.0796
     20 C           8.8158   -0.8927    0.0000 C.3     1  UNL1        0.1876
     21 C           3.4030    2.8097    0.0000 C.3     1  UNL1        0.0778
     22 C           9.6818    0.6073    0.0000 C.3     1  UNL1        0.0395
     23 H           5.0867    2.7007    0.0000 H       1  UNL1        0.0675
     24 H           7.0837   -0.2727    0.0000 H       1  UNL1        0.0647
     25 H           6.5468   -1.5827    0.0000 H       1  UNL1        0.0647
     26 H           5.3192    0.4881    0.0000 H       1  UNL1        0.0937
     27 H           7.4128   -2.7027    0.0000 H       1  UNL1        0.0648
     28 H           9.3527   -1.5827    0.0000 H       1  UNL1        0.0671
     29 H           3.2674    1.8081    0.0000 H       1  UNL1        0.0591
     30 H           3.3541    0.9829    0.0000 H       1  UNL1        0.0591
     31 H           5.6071   -0.2851    0.0000 H       1  UNL1        0.0587
     32 H           6.0056   -0.9753    0.0000 H       1  UNL1        0.0587
     33 H           8.8158   -0.2727    0.0000 H       1  UNL1        0.0937
     34 H           3.8015    3.2847    0.0000 H       1  UNL1        0.0587
     35 H           3.0044    3.2847    0.0000 H       1  UNL1        0.0587
     36 H           4.0162    3.7027    0.0000 H       1  UNL1        0.2105
     37 H           6.5799    2.5793    0.0000 H       1  UNL1        0.2101
     38 H           5.6808   -2.0827    0.0000 H       1  UNL1        0.2100
     39 H           8.4867   -3.7027    0.0000 H       1  UNL1        0.2100
     40 H          10.2187   -2.0827    0.0000 H       1  UNL1        0.2101
     41 H           2.0000    2.6197    0.0000 H       1  UNL1        0.2095
     42 H          10.3018    0.6073    0.0000 H       1  UNL1        0.0525
     43 H           9.6818    1.2273    0.0000 H       1  UNL1        0.0525
     44 H           9.0618    0.6073    0.0000 H       1  UNL1        0.0525
@<TRIPOS>BOND
     1     1    15    1
     2     1    18    1
     3     2    13    1
     4     2    20    1
     5    15     3    1
     6     3    19    1
     7    11     4    1
     8     4    36    1
     9    12     5    1
    10     5    37    1
    11    14     6    1
    12     6    38    1
    13    16     7    1
    14     7    39    1
    15    20     8    1
    16     8    22    1
    17    17     9    1
    18     9    40    1
    19    10    21    1
    20    10    41    1
    21    11    12    1
    22    11    18    1
    23    11    21    1
    24    12    15    1
    25    12    23    1
    26    13    14    1
    27    13    19    1
    28    13    24    1
    29    14    16    1
    30    14    25    1
    31    15    26    1
    32    16    17    1
    33    16    27    1
    34    17    20    1
    35    17    28    1
    36    18    29    1
    37    18    30    1
    38    19    31    1
    39    19    32    1
    40    20    33    1
    41    21    34    1
    42    21    35    1
    43    22    42    1
    44    22    43    1
    45    22    44    1
