@<TRIPOS>MOLECULE
IMPHY009734
 41 42 0 0 0
SMALL
GASTEIGER

@<TRIPOS>ATOM
      1 O           2.8660   -2.5950    0.0000 O.3     1  UNL1       -0.4804
      2 O           2.0000   -1.0950    0.0000 O.2     1  UNL1       -0.2507
      3 C           4.5981    1.4050    0.0000 C.3     1  UNL1       -0.0316
      4 C           4.5981    0.4050    0.0000 C.3     1  UNL1       -0.0160
      5 C           3.7320   -0.0950    0.0000 C.3     1  UNL1       -0.0219
      6 C           3.7320    1.9050    0.0000 C.3     1  UNL1       -0.0405
      7 C           2.8660    0.4050    0.0000 C.3     1  UNL1       -0.0487
      8 C           2.8660    1.4050    0.0000 C.3     1  UNL1       -0.0499
      9 C           5.4920    1.9397    0.0000 C.3     1  UNL1       -0.0457
     10 C           3.7320   -1.0950    0.0000 C.3     1  UNL1        0.0568
     11 C           5.4920   -0.1297    0.0000 C.2     1  UNL1       -0.0814
     12 C           6.3981    1.4258    0.0000 C.3     1  UNL1       -0.0317
     13 C           3.7320    2.9050    0.0000 C.3     1  UNL1       -0.0621
     14 C           6.3981    0.3842    0.0000 C.2     1  UNL1       -0.0762
     15 C           4.5981   -1.5950    0.0000 C.3     1  UNL1       -0.0520
     16 C           2.8660   -1.5950    0.0000 C.2     1  UNL1        0.3078
     17 C           7.2622   -0.1192    0.0000 C.3     1  UNL1       -0.0438
     18 H           4.5915    2.2550    0.0000 H       1  UNL1        0.0309
     19 H           4.5915   -0.4450    0.0000 H       1  UNL1        0.0349
     20 H           2.9959   -0.5200    0.0000 H       1  UNL1        0.0314
     21 H           3.1951    2.2150    0.0000 H       1  UNL1        0.0301
     22 H           2.2554    0.5127    0.0000 H       1  UNL1        0.0268
     23 H           2.6540   -0.1776    0.0000 H       1  UNL1        0.0268
     24 H           2.6540    1.9876    0.0000 H       1  UNL1        0.0268
     25 H           2.2554    1.2973    0.0000 H       1  UNL1        0.0268
     26 H           5.8856    2.4187    0.0000 H       1  UNL1        0.0271
     27 H           5.0874    2.4094    0.0000 H       1  UNL1        0.0271
     28 H           3.7320   -1.7150    0.0000 H       1  UNL1        0.0413
     29 H           5.4848   -0.7496    0.0000 H       1  UNL1        0.0574
     30 H           7.0089    1.3197    0.0000 H       1  UNL1        0.0310
     31 H           6.6071    2.0095    0.0000 H       1  UNL1        0.0310
     32 H           4.3520    2.9050    0.0000 H       1  UNL1        0.0233
     33 H           3.7320    3.5250    0.0000 H       1  UNL1        0.0233
     34 H           3.1120    2.9050    0.0000 H       1  UNL1        0.0233
     35 H           4.2881   -2.1319    0.0000 H       1  UNL1        0.0238
     36 H           5.1350   -1.9050    0.0000 H       1  UNL1        0.0238
     37 H           4.9081   -1.0581    0.0000 H       1  UNL1        0.0238
     38 H           6.9501   -0.6549    0.0000 H       1  UNL1        0.0274
     39 H           7.7979   -0.4312    0.0000 H       1  UNL1        0.0274
     40 H           7.5742    0.4166    0.0000 H       1  UNL1        0.0274
     41 H           2.3291   -2.9050    0.0000 H       1  UNL1        0.2951
@<TRIPOS>BOND
     1     1    16    1
     2     1    41    1
     3     2    16    2
     4     3     4    1
     5     3     6    1
     6     3     9    1
     7     3    18    1
     8     4     5    1
     9     4    11    1
    10     4    19    1
    11     5     7    1
    12     5    10    1
    13     5    20    1
    14     6     8    1
    15     6    13    1
    16     6    21    1
    17     7     8    1
    18     7    22    1
    19     7    23    1
    20     8    24    1
    21     8    25    1
    22     9    12    1
    23     9    26    1
    24     9    27    1
    25    10    15    1
    26    10    16    1
    27    10    28    1
    28    11    14    2
    29    11    29    1
    30    12    14    1
    31    12    30    1
    32    12    31    1
    33    13    32    1
    34    13    33    1
    35    13    34    1
    36    14    17    1
    37    15    35    1
    38    15    36    1
    39    15    37    1
    40    17    38    1
    41    17    39    1
    42    17    40    1
