@<TRIPOS>MOLECULE
IMPHY005170
 69 73 0 0 0
SMALL
GASTEIGER

@<TRIPOS>ATOM
      1 O           7.1640    2.5185    0.0000 O.3     1  UNL1       -0.3873
      2 O          10.0043    2.3314    0.0000 O.3     1  UNL1       -0.4574
      3 O           2.9755    1.3193    0.0000 O.2     1  UNL1       -0.2917
      4 O           2.9435   -2.8360    0.0000 O.3     1  UNL1       -0.3834
      5 O          11.7271    2.5095    0.0000 O.2     1  UNL1       -0.2453
      6 C           6.5251    1.2622    0.0000 C.3     1  UNL1        0.0183
      7 C           7.4714    1.5669    0.0000 C.3     1  UNL1        0.0813
      8 C           6.5251    0.2622    0.0000 C.2     1  UNL1       -0.0610
      9 C           5.6591    1.7622    0.0000 C.3     1  UNL1       -0.0407
     10 C           4.7931    0.2622    0.0000 C.3     1  UNL1       -0.0031
     11 C           8.0550    0.7622    0.0000 C.3     1  UNL1       -0.0191
     12 C           5.6591   -0.2378    0.0000 C.2     1  UNL1       -0.0616
     13 C           7.4714   -0.0425    0.0000 C.3     1  UNL1       -0.0282
     14 C           4.7931    1.2622    0.0000 C.3     1  UNL1       -0.0444
     15 C           8.2814    2.1533    0.0000 C.3     1  UNL1        0.0233
     16 C           3.8831   -0.2446    0.0000 C.3     1  UNL1        0.0602
     17 C           6.5251    2.2622    0.0000 C.3     1  UNL1       -0.0532
     18 C           5.6752   -1.2793    0.0000 C.3     1  UNL1       -0.0126
     19 C           9.1942    1.7450    0.0000 C.3     1  UNL1        0.1122
     20 C           3.8751   -1.2862    0.0000 C.2     1  UNL1       -0.0273
     21 C           8.1786    3.1480    0.0000 C.3     1  UNL1       -0.0564
     22 C           4.7771   -1.8070    0.0000 C.2     1  UNL1       -0.0771
     23 C           3.8908    0.7553    0.0000 C.3     1  UNL1       -0.0481
     24 C           2.9562    0.3194    0.0000 C.2     1  UNL1        0.1663
     25 C           2.9396   -1.8360    0.0000 C.3     1  UNL1        0.0958
     26 C           9.2970    0.7503    0.0000 C.3     1  UNL1        0.0064
     27 C           2.0084   -0.2085    0.0000 C.2     1  UNL1       -0.0195
     28 C           2.0000   -1.2935    0.0000 C.2     1  UNL1       -0.0485
     29 C          10.2099    0.3420    0.0000 C.2     1  UNL1       -0.0595
     30 C          10.9171    1.9231    0.0000 C.2     1  UNL1        0.3351
     31 C          11.0199    0.9284    0.0000 C.2     1  UNL1        0.0326
     32 C          10.3127   -0.6527    0.0000 C.3     1  UNL1       -0.0429
     33 C          11.9328    0.5201    0.0000 C.3     1  UNL1       -0.0330
     34 H           6.0576    2.2372    0.0000 H       1  UNL1        0.0275
     35 H           5.2606    2.2372    0.0000 H       1  UNL1        0.0275
     36 H           5.5292    0.6872    0.0000 H       1  UNL1        0.0358
     37 H           8.5158    0.3475    0.0000 H       1  UNL1        0.0296
     38 H           8.5158    1.1769    0.0000 H       1  UNL1        0.0296
     39 H           7.2203   -0.6094    0.0000 H       1  UNL1        0.0311
     40 H           8.0087   -0.3518    0.0000 H       1  UNL1        0.0311
     41 H           4.5810    1.8448    0.0000 H       1  UNL1        0.0272
     42 H           4.1825    1.1545    0.0000 H       1  UNL1        0.0272
     43 H           8.7836    2.5169    0.0000 H       1  UNL1        0.0362
     44 H           7.1451    2.2622    0.0000 H       1  UNL1        0.0239
     45 H           6.5251    2.8822    0.0000 H       1  UNL1        0.0239
     46 H           5.9051    2.2622    0.0000 H       1  UNL1        0.0239
     47 H           5.8932   -1.8597    0.0000 H       1  UNL1        0.0353
     48 H           6.2843   -1.1638    0.0000 H       1  UNL1        0.0353
     49 H           9.9702    1.3979    0.0000 H       1  UNL1        0.0741
     50 H           7.5796    2.9786    0.0000 H       1  UNL1        0.2102
     51 H           8.7953    3.2118    0.0000 H       1  UNL1        0.0234
     52 H           8.1148    3.7647    0.0000 H       1  UNL1        0.0234
     53 H           7.5619    3.0843    0.0000 H       1  UNL1        0.0234
     54 H           4.7795   -2.4270    0.0000 H       1  UNL1        0.0576
     55 H           4.5108    0.7506    0.0000 H       1  UNL1        0.0242
     56 H           3.8956    1.3753    0.0000 H       1  UNL1        0.0242
     57 H           3.2708    0.7601    0.0000 H       1  UNL1        0.0242
     58 H           3.4784   -2.1428    0.0000 H       1  UNL1        0.0685
     59 H           8.6786    0.7946    0.0000 H       1  UNL1        0.0346
     60 H           9.1460    0.1490    0.0000 H       1  UNL1        0.0346
     61 H           1.4750    0.1077    0.0000 H       1  UNL1        0.0650
     62 H           1.4619   -1.6014    0.0000 H       1  UNL1        0.0602
     63 H           2.4078   -3.1480    0.0000 H       1  UNL1        0.2107
     64 H           9.6960   -0.7165    0.0000 H       1  UNL1        0.0275
     65 H          10.3764   -1.2694    0.0000 H       1  UNL1        0.0275
     66 H          10.9294   -0.5890    0.0000 H       1  UNL1        0.0275
     67 H          11.6796   -0.0459    0.0000 H       1  UNL1        0.0280
     68 H          12.4987    0.2669    0.0000 H       1  UNL1        0.0280
     69 H          12.1859    1.0860    0.0000 H       1  UNL1        0.0280
@<TRIPOS>BOND
     1     7     1    1
     2     1    50    1
     3     2    19    1
     4     2    30    1
     5     3    24    2
     6    25     4    1
     7     4    63    1
     8     5    30    2
     9     6     7    1
    10     6     8    1
    11     6     9    1
    12     6    17    1
    13     7    11    1
    14     7    15    1
    15     8    12    2
    16     8    13    1
    17     9    14    1
    18     9    34    1
    19     9    35    1
    20    10    12    1
    21    10    14    1
    22    10    16    1
    23    10    36    1
    24    11    13    1
    25    11    37    1
    26    11    38    1
    27    12    18    1
    28    13    39    1
    29    13    40    1
    30    14    41    1
    31    14    42    1
    32    15    19    1
    33    15    21    1
    34    15    43    1
    35    16    20    1
    36    16    23    1
    37    16    24    1
    38    17    44    1
    39    17    45    1
    40    17    46    1
    41    18    22    1
    42    18    47    1
    43    18    48    1
    44    19    26    1
    45    19    49    1
    46    20    22    2
    47    20    25    1
    48    21    51    1
    49    21    52    1
    50    21    53    1
    51    22    54    1
    52    23    55    1
    53    23    56    1
    54    23    57    1
    55    24    27    1
    56    25    28    1
    57    25    58    1
    58    26    29    1
    59    26    59    1
    60    26    60    1
    61    27    28    2
    62    27    61    1
    63    28    62    1
    64    29    31    2
    65    29    32    1
    66    30    31    1
    67    31    33    1
    68    32    64    1
    69    32    65    1
    70    32    66    1
    71    33    67    1
    72    33    68    1
    73    33    69    1
