@<TRIPOS>MOLECULE
IMPHY011054
 28 27 0 0 0
SMALL
GASTEIGER

@<TRIPOS>ATOM
      1 O           4.5981   -0.7500    0.0000 O.2     1  UNL1       -0.2974
      2 C           6.3301    0.2500    0.0000 C.3     1  UNL1       -0.0464
      3 C           7.1962    0.7500    0.0000 C.3     1  UNL1       -0.0529
      4 C           5.4641    0.7500    0.0000 C.3     1  UNL1        0.0058
      5 C           8.0622    0.2500    0.0000 C.3     1  UNL1       -0.0559
      6 C           4.5981    0.2500    0.0000 C.2     1  UNL1        0.1334
      7 C           3.7320    0.7500    0.0000 C.3     1  UNL1        0.0056
      8 C           2.8660    0.2500    0.0000 C.3     1  UNL1       -0.0492
      9 C           8.9282    0.7500    0.0000 C.3     1  UNL1       -0.0653
     10 C           2.0000    0.7500    0.0000 C.3     1  UNL1       -0.0649
     11 H           5.9316   -0.2249    0.0000 H       1  UNL1        0.0269
     12 H           6.7287   -0.2249    0.0000 H       1  UNL1        0.0269
     13 H           7.5947    1.2250    0.0000 H       1  UNL1        0.0265
     14 H           6.7976    1.2250    0.0000 H       1  UNL1        0.0265
     15 H           5.8626    1.2250    0.0000 H       1  UNL1        0.0342
     16 H           5.0656    1.2250    0.0000 H       1  UNL1        0.0342
     17 H           7.6636   -0.2249    0.0000 H       1  UNL1        0.0263
     18 H           8.4607   -0.2249    0.0000 H       1  UNL1        0.0263
     19 H           4.1306    1.2250    0.0000 H       1  UNL1        0.0341
     20 H           3.3335    1.2250    0.0000 H       1  UNL1        0.0341
     21 H           2.4675   -0.2249    0.0000 H       1  UNL1        0.0267
     22 H           3.2646   -0.2249    0.0000 H       1  UNL1        0.0267
     23 H           9.2382    0.2131    0.0000 H       1  UNL1        0.0230
     24 H           9.4651    1.0600    0.0000 H       1  UNL1        0.0230
     25 H           8.6182    1.2869    0.0000 H       1  UNL1        0.0230
     26 H           2.3100    1.2869    0.0000 H       1  UNL1        0.0230
     27 H           1.4631    1.0600    0.0000 H       1  UNL1        0.0230
     28 H           1.6900    0.2131    0.0000 H       1  UNL1        0.0230
@<TRIPOS>BOND
     1     1     6    2
     2     2     3    1
     3     2     4    1
     4     2    11    1
     5     2    12    1
     6     3     5    1
     7     3    13    1
     8     3    14    1
     9     4     6    1
    10     4    15    1
    11     4    16    1
    12     5     9    1
    13     5    17    1
    14     5    18    1
    15     6     7    1
    16     7     8    1
    17     7    19    1
    18     7    20    1
    19     8    10    1
    20     8    21    1
    21     8    22    1
    22     9    23    1
    23     9    24    1
    24     9    25    1
    25    10    26    1
    26    10    27    1
    27    10    28    1
