@<TRIPOS>MOLECULE
IMPHY007529
 97 102 0 0 0
SMALL
GASTEIGER

@<TRIPOS>ATOM
      1 O           8.3187    0.5864    0.0000 O.2     1  UNL1       -0.2738
      2 O           6.9641    0.4440    0.0000 O.2     1  UNL1       -0.2738
      3 O           2.8660    0.8100    0.0000 O.3     1  UNL1       -0.4819
      4 O           3.7226    0.2933    0.0000 O.2     1  UNL1       -0.2736
      5 O           3.7118   -2.6532    0.0000 O.2     1  UNL1       -0.2734
      6 N           7.9586    2.2806    0.0000 N.am    1  UNL1       -0.2886
      7 N           5.4641    1.3100    0.0000 N.am    1  UNL1       -0.2992
      8 N           9.9149    2.6964    0.0000 N.3     1  UNL1       -0.2974
      9 N           5.4641   -0.6900    0.0000 N.am    1  UNL1       -0.3020
     10 N           4.5981   -3.1900    0.0000 N.am    1  UNL1       -0.2904
     11 C           6.9641    2.1760    0.0000 C.3     1  UNL1        0.1023
     12 C           6.5574    3.0896    0.0000 C.3     1  UNL1       -0.0243
     13 C           7.3005    3.7587    0.0000 C.3     1  UNL1       -0.0350
     14 C           8.1665    3.2587    0.0000 C.3     1  UNL1        0.0156
     15 C           8.6278    1.5374    0.0000 C.2     1  UNL1        0.2337
     16 C           6.4641    1.3100    0.0000 C.2     1  UNL1        0.2343
     17 C           9.6059    1.7453    0.0000 C.3     1  UNL1        0.0910
     18 C           4.5981    0.8100    0.0000 C.3     1  UNL1        0.1408
     19 C          10.2750    1.0022    0.0000 C.3     1  UNL1       -0.0035
     20 C           3.7320    1.3100    0.0000 C.3     1  UNL1        0.1518
     21 C          11.2532    1.2101    0.0000 C.ar    1  UNL1       -0.0454
     22 C           4.5981   -0.1900    0.0000 C.2     1  UNL1        0.2380
     23 C          10.8931    2.9043    0.0000 C.3     1  UNL1       -0.0123
     24 C           9.2458    3.4395    0.0000 C.3     1  UNL1       -0.0123
     25 C           3.7320    2.3100    0.0000 C.ar    1  UNL1       -0.0051
     26 C           5.4641   -1.6900    0.0000 C.3     1  UNL1        0.1037
     27 C          11.5622    2.1612    0.0000 C.ar    1  UNL1       -0.0585
     28 C          11.9223    0.4670    0.0000 C.ar    1  UNL1       -0.0585
     29 C           4.5981    2.8100    0.0000 C.ar    1  UNL1       -0.0550
     30 C           2.8660    2.8100    0.0000 C.ar    1  UNL1       -0.0550
     31 C           6.3301   -2.1900    0.0000 C.3     1  UNL1       -0.0006
     32 C           2.8660   -0.1900    0.0000 C.ar    1  UNL1        0.1215
     33 C          12.5403    2.3691    0.0000 C.ar    1  UNL1       -0.0615
     34 C          12.9005    0.6749    0.0000 C.ar    1  UNL1       -0.0615
     35 C           4.5981   -2.1900    0.0000 C.2     1  UNL1        0.2374
     36 C          13.2095    1.6259    0.0000 C.ar    1  UNL1       -0.0617
     37 C           4.5981    3.8100    0.0000 C.ar    1  UNL1       -0.0614
     38 C           2.8660    3.8100    0.0000 C.ar    1  UNL1       -0.0614
     39 C           7.1962   -1.6900    0.0000 C.ar    1  UNL1       -0.0451
     40 C           3.7320    4.3100    0.0000 C.ar    1  UNL1       -0.0617
     41 C           3.7320   -0.6900    0.0000 C.ar    1  UNL1       -0.0194
     42 C           2.0000   -0.6900    0.0000 C.ar    1  UNL1       -0.0194
     43 C           2.8660   -2.1900    0.0000 C.ar    1  UNL1       -0.0236
     44 C           3.7320   -1.6900    0.0000 C.ar    1  UNL1       -0.0511
     45 C           2.0000   -1.6900    0.0000 C.ar    1  UNL1       -0.0511
     46 C           8.0622   -2.1900    0.0000 C.ar    1  UNL1       -0.0585
     47 C           7.1962   -0.6900    0.0000 C.ar    1  UNL1       -0.0585
     48 C           3.7320   -3.6900    0.0000 C.2     1  UNL1       -0.0031
     49 C           2.8660   -3.1900    0.0000 C.2     1  UNL1       -0.0407
     50 C           8.9282   -1.6900    0.0000 C.ar    1  UNL1       -0.0615
     51 C           8.0622   -0.1900    0.0000 C.ar    1  UNL1       -0.0615
     52 C           8.9282   -0.6900    0.0000 C.ar    1  UNL1       -0.0617
     53 H           7.3018    1.6560    0.0000 H       1  UNL1        0.0597
     54 H           6.1929    3.5912    0.0000 H       1  UNL1        0.0288
     55 H           6.0204    2.7796    0.0000 H       1  UNL1        0.0288
     56 H           7.6649    4.2603    0.0000 H       1  UNL1        0.0281
     57 H           6.8398    4.1736    0.0000 H       1  UNL1        0.0281
     58 H           8.7562    3.0671    0.0000 H       1  UNL1        0.0465
     59 H           8.4187    3.8251    0.0000 H       1  UNL1        0.0465
     60 H          10.2124    1.8742    0.0000 H       1  UNL1        0.0562
     61 H           5.4641    1.9300    0.0000 H       1  UNL1        0.1496
     62 H           5.1350    0.5000    0.0000 H       1  UNL1        0.0636
     63 H           9.7492    0.6736    0.0000 H       1  UNL1        0.0333
     64 H          10.5073    0.4273    0.0000 H       1  UNL1        0.0333
     65 H           4.2690    1.6200    0.0000 H       1  UNL1        0.0808
     66 H          11.0220    2.2978    0.0000 H       1  UNL1        0.0391
     67 H          11.4995    3.0332    0.0000 H       1  UNL1        0.0391
     68 H          10.7642    3.5108    0.0000 H       1  UNL1        0.0391
     69 H           9.7065    3.8544    0.0000 H       1  UNL1        0.0391
     70 H           8.8309    3.9003    0.0000 H       1  UNL1        0.0391
     71 H           8.7850    3.0247    0.0000 H       1  UNL1        0.0391
     72 H           6.0841   -0.6900    0.0000 H       1  UNL1        0.1495
     73 H           6.0010   -1.3800    0.0000 H       1  UNL1        0.0598
     74 H          11.1473    2.6219    0.0000 H       1  UNL1        0.0620
     75 H          11.7307   -0.1227    0.0000 H       1  UNL1        0.0620
     76 H           5.1350    2.5000    0.0000 H       1  UNL1        0.0621
     77 H           2.3291    2.5000    0.0000 H       1  UNL1        0.0621
     78 H           5.9316   -2.6650    0.0000 H       1  UNL1        0.0336
     79 H           6.7287   -2.6649    0.0000 H       1  UNL1        0.0336
     80 H          12.7319    2.9587    0.0000 H       1  UNL1        0.0618
     81 H          13.3153    0.2141    0.0000 H       1  UNL1        0.0618
     82 H          13.8159    1.7548    0.0000 H       1  UNL1        0.0618
     83 H           5.1350    4.1200    0.0000 H       1  UNL1        0.0618
     84 H           2.3291    4.1200    0.0000 H       1  UNL1        0.0618
     85 H           3.7320    4.9300    0.0000 H       1  UNL1        0.0618
     86 H           4.2690   -0.3800    0.0000 H       1  UNL1        0.0654
     87 H           1.4631   -0.3800    0.0000 H       1  UNL1        0.0654
     88 H           5.1350   -3.5000    0.0000 H       1  UNL1        0.1543
     89 H           4.2690   -2.0000    0.0000 H       1  UNL1        0.0625
     90 H           1.4631   -2.0000    0.0000 H       1  UNL1        0.0625
     91 H           8.0622   -2.8100    0.0000 H       1  UNL1        0.0620
     92 H           6.6592   -0.3800    0.0000 H       1  UNL1        0.0620
     93 H           3.7320   -4.3100    0.0000 H       1  UNL1        0.0782
     94 H           2.3291   -3.5000    0.0000 H       1  UNL1        0.0636
     95 H           9.4651   -2.0000    0.0000 H       1  UNL1        0.0618
     96 H           8.0622    0.4300    0.0000 H       1  UNL1        0.0618
     97 H           9.4651   -0.3800    0.0000 H       1  UNL1        0.0618
@<TRIPOS>BOND
     1     1    15    2
     2     2    16    2
     3     3    20    1
     4     3    32    1
     5     4    22    2
     6     5    35    2
     7     6    11    1
     8     6    14    1
     9     6    15   am
    10     7    16   am
    11    18     7    1
    12     7    61    1
    13    17     8    1
    14     8    23    1
    15     8    24    1
    16     9    22   am
    17     9    26    1
    18     9    72    1
    19    10    35   am
    20    10    48    1
    21    10    88    1
    22    11    12    1
    23    11    16    1
    24    11    53    1
    25    12    13    1
    26    12    54    1
    27    12    55    1
    28    13    14    1
    29    13    56    1
    30    13    57    1
    31    14    58    1
    32    14    59    1
    33    15    17    1
    34    17    19    1
    35    17    60    1
    36    18    20    1
    37    18    22    1
    38    18    62    1
    39    19    21    1
    40    19    63    1
    41    19    64    1
    42    20    25    1
    43    20    65    1
    44    21    27   ar
    45    21    28   ar
    46    23    66    1
    47    23    67    1
    48    23    68    1
    49    24    69    1
    50    24    70    1
    51    24    71    1
    52    25    29   ar
    53    25    30   ar
    54    26    31    1
    55    26    35    1
    56    26    73    1
    57    27    33   ar
    58    27    74    1
    59    28    34   ar
    60    28    75    1
    61    29    37   ar
    62    29    76    1
    63    30    38   ar
    64    30    77    1
    65    31    39    1
    66    31    78    1
    67    31    79    1
    68    32    41   ar
    69    32    42   ar
    70    33    36   ar
    71    33    80    1
    72    34    36   ar
    73    34    81    1
    74    36    82    1
    75    37    40   ar
    76    37    83    1
    77    38    40   ar
    78    38    84    1
    79    39    46   ar
    80    39    47   ar
    81    40    85    1
    82    41    44   ar
    83    41    86    1
    84    42    45   ar
    85    42    87    1
    86    43    44   ar
    87    43    45   ar
    88    43    49    1
    89    44    89    1
    90    45    90    1
    91    46    50   ar
    92    46    91    1
    93    47    51   ar
    94    47    92    1
    95    48    49    2
    96    48    93    1
    97    49    94    1
    98    50    52   ar
    99    50    95    1
   100    51    52   ar
   101    51    96    1
   102    52    97    1
