@<TRIPOS>MOLECULE
IMPHY000645
 31 33 0 0 0
SMALL
GASTEIGER

@<TRIPOS>ATOM
      1 C           5.8198  -11.5405    0.0000 C.2     1  UNL1        0.2424
      2 C           5.8204  -12.3405    0.0000 C.3     1  UNL1        0.1587
      3 O           6.5131  -11.1399    0.0000 O.2     1  UNL1       -0.2733
      4 N           5.1785  -12.8129    0.0000 N.3     1  UNL1       -0.2626
      5 C           6.1576   -9.7646    0.0000 C.2     1  UNL1        0.2635
      6 N           6.8492  -10.1604    0.0000 N.am    1  UNL1       -0.1963
      7 C           7.5409   -9.7604    0.0000 C.3     1  UNL1        0.1730
      8 C           8.2326  -10.1562    0.0000 C.3     1  UNL1        0.0290
      9 C           8.9242   -9.7562    0.0000 C.3     1  UNL1        0.0022
     10 C           5.1667   -7.2458    0.0000 C.ar    1  UNL1        0.0369
     11 C           5.1667   -8.0458    0.0000 C.ar    1  UNL1        0.1385
     12 C           5.8620   -8.4458    0.0000 C.ar    1  UNL1        0.0369
     13 C           6.5532   -8.0458    0.0000 C.ar    1  UNL1        0.0032
     14 C           6.5532   -7.2458    0.0000 C.ar    1  UNL1        0.0015
     15 C           5.8620   -6.8458    0.0000 C.ar    1  UNL1        0.0032
     16 C           7.2471   -6.8464    0.0000 C.2     1  UNL1        0.0179
     17 O           4.4732   -8.4462    0.0000 O.3     1  UNL1       -0.4769
     18 C           8.2405   -7.4219    0.0000 C.2     1  UNL1        0.0887
     19 N           8.2389   -8.5702    0.0000 N.am    1  UNL1       -0.1765
     20 C           7.5391   -8.9604    0.0000 C.2     1  UNL1        0.2654
     21 O           6.1558   -8.9646    0.0000 O.2     1  UNL1       -0.2714
     22 O           6.8479   -8.5562    0.0000 O.2     1  UNL1       -0.2711
     23 C           5.4599  -10.1628    0.0000 C.3     1  UNL1        0.1939
     24 C           4.7716   -9.7599    0.0000 C.3     1  UNL1        0.1945
     25 C           4.1740  -10.2894    0.0000 C.3     1  UNL1        0.0673
     26 C           4.4954  -11.0214    0.0000 C.3     1  UNL1        0.0978
     27 N           5.2883  -10.9406    0.0000 N.am    1  UNL1       -0.2689
     28 C           8.2344  -10.9562    0.0000 C.3     1  UNL1        0.0023
     29 C           9.6184  -10.1554    0.0000 C.3     1  UNL1        0.0001
     30 C           5.1841  -13.6081    0.0000 C.3     1  UNL1        0.0900
     31 C           4.4445  -12.4881    0.0000 C.3     1  UNL1        0.0900
@<TRIPOS>BOND
     1     1     3    2
     2     1     2    1
     3     2     4    1
     4     4    30    1
     5     4    31    1
     6     5     6   am
     7     5    21    2
     8     7    20    1
     9     7     6    1
    10     7     8    1
    11     8     9    1
    12     8    28    1
    13     9    29    1
    14    10    11   ar
    15    11    12   ar
    16    11    17    1
    17    12    13   ar
    18    13    14   ar
    19    14    15   ar
    20    14    16    1
    21    15    10   ar
    22    16    18    2
    23    17    24    1
    24    18    19    1
    25    20    19   am
    26    20    22    2
    27    23     5    1
    28    23    24    1
    29    23    27    1
    30    24    25    1
    31    25    26    1
    32    26    27    1
    33    27     1   am
