@<TRIPOS>MOLECULE
IMPHY008922
 48 52 0 0 0
SMALL
GASTEIGER

@<TRIPOS>ATOM
      1 O           9.6284    2.4697    0.0000 O.3     1  UNL1       -0.3931
      2 O           7.5596   -2.5737    0.0000 O.3     1  UNL1       -0.4644
      3 O           6.2860   -1.3999    0.0000 O.2     1  UNL1       -0.2449
      4 N           6.9654    2.1163    0.0000 N.3     1  UNL1       -0.2843
      5 N           4.5124    0.9988    0.0000 N.ar    1  UNL1       -0.3564
      6 N           9.7248   -0.3112    0.0000 N.ar    1  UNL1       -0.2621
      7 C           6.2962    1.3731    0.0000 C.3     1  UNL1        0.0555
      8 C           7.9875    1.9154    0.0000 C.3     1  UNL1        0.0610
      9 C           5.3181    1.5810    0.0000 C.ar    1  UNL1        0.0379
     10 C           6.6028    0.3776    0.0000 C.3     1  UNL1       -0.0053
     11 C           6.6564    3.0673    0.0000 C.3     1  UNL1        0.0042
     12 C           5.0091    2.5321    0.0000 C.ar    1  UNL1       -0.0164
     13 C           5.6782    3.2752    0.0000 C.3     1  UNL1       -0.0125
     14 C           8.3170    0.9273    0.0000 C.ar    1  UNL1       -0.0060
     15 C           7.6200    0.1532    0.0000 C.ar    1  UNL1       -0.0239
     16 C           4.0150    2.5295    0.0000 C.ar    1  UNL1        0.0032
     17 C           8.6480    2.6663    0.0000 C.3     1  UNL1        0.0639
     18 C           3.7086    1.5838    0.0000 C.ar    1  UNL1        0.0470
     19 C           7.9393   -0.8837    0.0000 C.ar    1  UNL1        0.0805
     20 C           9.3816    0.7181    0.0000 C.ar    1  UNL1        0.0326
     21 C           3.3334    3.3090    0.0000 C.ar    1  UNL1       -0.0523
     22 C           2.6994    1.3521    0.0000 C.ar    1  UNL1       -0.0378
     23 C           8.9988   -1.1175    0.0000 C.ar    1  UNL1        0.0418
     24 C           7.2616   -1.6191    0.0000 C.2     1  UNL1        0.3407
     25 C           2.3191    3.1007    0.0000 C.ar    1  UNL1       -0.0611
     26 C           2.0000    2.1156    0.0000 C.ar    1  UNL1       -0.0598
     27 C           6.8820   -3.3090    0.0000 C.3     1  UNL1        0.0820
     28 H           5.8778    0.9156    0.0000 H       1  UNL1        0.0530
     29 H           7.7879    2.5024    0.0000 H       1  UNL1        0.0536
     30 H           5.9878    0.2992    0.0000 H       1  UNL1        0.0332
     31 H           6.5748   -0.2417    0.0000 H       1  UNL1        0.0332
     32 H           7.2703    3.1536    0.0000 H       1  UNL1        0.0430
     33 H           6.6780    3.6869    0.0000 H       1  UNL1        0.0430
     34 H           5.9105    3.8501    0.0000 H       1  UNL1        0.0326
     35 H           5.1524    3.6038    0.0000 H       1  UNL1        0.0326
     36 H           4.5113    0.3788    0.0000 H       1  UNL1        0.1656
     37 H           8.8735    3.2438    0.0000 H       1  UNL1        0.0576
     38 H           8.1184    2.9887    0.0000 H       1  UNL1        0.0576
     39 H           9.7911    1.1836    0.0000 H       1  UNL1        0.0833
     40 H           3.5313    3.8966    0.0000 H       1  UNL1        0.0624
     41 H           2.5152    0.7601    0.0000 H       1  UNL1        0.0638
     42 H           9.1881   -1.7079    0.0000 H       1  UNL1        0.0838
     43 H          10.0379    2.9352    0.0000 H       1  UNL1        0.2095
     44 H           1.9056    3.5626    0.0000 H       1  UNL1        0.0618
     45 H           1.3942    1.9838    0.0000 H       1  UNL1        0.0618
     46 H           6.4260   -2.8888    0.0000 H       1  UNL1        0.0661
     47 H           6.4618   -3.7649    0.0000 H       1  UNL1        0.0661
     48 H           7.3379   -3.7292    0.0000 H       1  UNL1        0.0661
@<TRIPOS>BOND
     1     1    17    1
     2     1    43    1
     3     2    24    1
     4     2    27    1
     5     3    24    2
     6     4     7    1
     7     4     8    1
     8     4    11    1
     9     5     9   ar
    10     5    18   ar
    11     5    36    1
    12     6    20   ar
    13     6    23   ar
    14     7     9    1
    15     7    10    1
    16     7    28    1
    17     8    14    1
    18     8    17    1
    19     8    29    1
    20     9    12   ar
    21    10    15    1
    22    10    30    1
    23    10    31    1
    24    11    13    1
    25    11    32    1
    26    11    33    1
    27    12    13    1
    28    12    16   ar
    29    13    34    1
    30    13    35    1
    31    14    15   ar
    32    14    20   ar
    33    15    19   ar
    34    16    18   ar
    35    16    21   ar
    36    17    37    1
    37    17    38    1
    38    18    22   ar
    39    19    23   ar
    40    19    24    1
    41    20    39    1
    42    21    25   ar
    43    21    40    1
    44    22    26   ar
    45    22    41    1
    46    23    42    1
    47    25    26   ar
    48    25    44    1
    49    26    45    1
    50    27    46    1
    51    27    47    1
    52    27    48    1
