@<TRIPOS>MOLECULE
IMPHY005168
 52 55 0 0 0
SMALL
GASTEIGER

@<TRIPOS>ATOM
      1 O           6.0682   -1.8450    0.0000 O.3     1  UNL1       -0.4800
      2 O           7.8003    0.1550    0.0000 O.3     1  UNL1       -0.4538
      3 O           4.3198    1.1896    0.0000 O.3     1  UNL1       -0.5063
      4 O           2.5381   -1.8692    0.0000 O.3     1  UNL1       -0.5065
      5 O          10.3984   -1.3450    0.0000 O.3     1  UNL1       -0.5032
      6 O           8.6663   -4.3450    0.0000 O.3     1  UNL1       -0.5032
      7 O          10.3984   -3.3450    0.0000 O.3     1  UNL1       -0.5009
      8 O           6.9343    1.6550    0.0000 O.2     1  UNL1       -0.2456
      9 C           6.9343   -0.3450    0.0000 C.3     1  UNL1        0.1483
     10 C           6.9343   -1.3450    0.0000 C.3     1  UNL1        0.1624
     11 C           6.0682    0.1550    0.0000 C.3     1  UNL1        0.0204
     12 C           5.2022   -0.3450    0.0000 C.ar    1  UNL1        0.0395
     13 C           7.8003   -1.8450    0.0000 C.ar    1  UNL1        0.0034
     14 C           5.2022   -1.3450    0.0000 C.ar    1  UNL1        0.1318
     15 C           4.3083    0.1897    0.0000 C.ar    1  UNL1        0.1271
     16 C           4.3083   -1.8797    0.0000 C.ar    1  UNL1        0.0221
     17 C           7.8003   -2.8450    0.0000 C.ar    1  UNL1       -0.0095
     18 C           8.6663   -1.3450    0.0000 C.ar    1  UNL1       -0.0095
     19 C           3.4022   -0.3242    0.0000 C.ar    1  UNL1        0.0218
     20 C           3.4022   -1.3658    0.0000 C.ar    1  UNL1        0.1238
     21 C           9.5323   -1.8450    0.0000 C.ar    1  UNL1        0.1623
     22 C           8.6663   -3.3450    0.0000 C.ar    1  UNL1        0.1623
     23 C           7.8003    1.1550    0.0000 C.2     1  UNL1        0.3323
     24 C           9.5323   -2.8450    0.0000 C.ar    1  UNL1        0.2006
     25 C           8.6663    1.6550    0.0000 C.2     1  UNL1        0.0231
     26 C           8.6663    2.6550    0.0000 C.2     1  UNL1       -0.0478
     27 C           9.5323    3.1550    0.0000 C.ar    1  UNL1       -0.0248
     28 C          10.3984    2.6550    0.0000 C.ar    1  UNL1       -0.0546
     29 C           9.5323    4.1550    0.0000 C.ar    1  UNL1       -0.0546
     30 C          11.2644    3.1550    0.0000 C.ar    1  UNL1       -0.0612
     31 C          10.3984    4.6550    0.0000 C.ar    1  UNL1       -0.0612
     32 C          11.2644    4.1550    0.0000 C.ar    1  UNL1       -0.0617
     33 H           6.9343    0.2750    0.0000 H       1  UNL1        0.0778
     34 H           6.9343   -1.9650    0.0000 H       1  UNL1        0.0822
     35 H           6.4668    0.6299    0.0000 H       1  UNL1        0.0353
     36 H           5.6697    0.6299    0.0000 H       1  UNL1        0.0353
     37 H           4.3154   -2.4996    0.0000 H       1  UNL1        0.0691
     38 H           7.2634   -3.1550    0.0000 H       1  UNL1        0.0659
     39 H           8.6663   -0.7250    0.0000 H       1  UNL1        0.0659
     40 H           2.8665   -0.0121    0.0000 H       1  UNL1        0.0691
     41 H           3.7865    1.5058    0.0000 H       1  UNL1        0.2921
     42 H           9.2033    1.3450    0.0000 H       1  UNL1        0.0689
     43 H           2.0000   -1.5612    0.0000 H       1  UNL1        0.2921
     44 H          10.9353   -1.6550    0.0000 H       1  UNL1        0.2923
     45 H           8.1294   -4.6550    0.0000 H       1  UNL1        0.2923
     46 H          10.3984   -3.9650    0.0000 H       1  UNL1        0.2924
     47 H           8.1294    2.9650    0.0000 H       1  UNL1        0.0626
     48 H          10.3984    2.0350    0.0000 H       1  UNL1        0.0623
     49 H           8.9954    4.4650    0.0000 H       1  UNL1        0.0623
     50 H          11.8013    2.8450    0.0000 H       1  UNL1        0.0618
     51 H          10.3984    5.2750    0.0000 H       1  UNL1        0.0618
     52 H          11.8013    4.4650    0.0000 H       1  UNL1        0.0618
@<TRIPOS>BOND
     1     1    10    1
     2     1    14    1
     3     9     2    1
     4     2    23    1
     5     3    15    1
     6     3    41    1
     7     4    20    1
     8     4    43    1
     9     5    21    1
    10     5    44    1
    11     6    22    1
    12     6    45    1
    13     7    24    1
    14     7    46    1
    15     8    23    2
    16     9    10    1
    17     9    11    1
    18     9    33    1
    19    10    13    1
    20    10    34    1
    21    11    12    1
    22    11    35    1
    23    11    36    1
    24    12    14   ar
    25    12    15   ar
    26    13    17   ar
    27    13    18   ar
    28    14    16   ar
    29    15    19   ar
    30    16    20   ar
    31    16    37    1
    32    17    22   ar
    33    17    38    1
    34    18    21   ar
    35    18    39    1
    36    19    20   ar
    37    19    40    1
    38    21    24   ar
    39    22    24   ar
    40    23    25    1
    41    25    26    2
    42    25    42    1
    43    26    27    1
    44    26    47    1
    45    27    28   ar
    46    27    29   ar
    47    28    30   ar
    48    28    48    1
    49    29    31   ar
    50    29    49    1
    51    30    32   ar
    52    30    50    1
    53    31    32   ar
    54    31    51    1
    55    32    52    1
