@<TRIPOS>MOLECULE
IMPHY002075
 36 35 0 0 0
SMALL
GASTEIGER

@<TRIPOS>ATOM
      1 O           4.5981   -0.7500    0.0000 O.2     1  UNL1       -0.2970
      2 O           2.0000    0.7500    0.0000 O.2     1  UNL1       -0.3006
      3 C           8.0622    0.2500    0.0000 C.3     1  UNL1       -0.0530
      4 C           8.9282    0.7500    0.0000 C.3     1  UNL1       -0.0531
      5 C           7.1962    0.7500    0.0000 C.3     1  UNL1       -0.0527
      6 C           9.7942    0.2500    0.0000 C.3     1  UNL1       -0.0531
      7 C           6.3301    0.2500    0.0000 C.3     1  UNL1       -0.0464
      8 C          10.6603    0.7500    0.0000 C.3     1  UNL1       -0.0533
      9 C           5.4641    0.7500    0.0000 C.3     1  UNL1        0.0062
     10 C          11.5263    0.2500    0.0000 C.3     1  UNL1       -0.0559
     11 C          12.3923    0.7500    0.0000 C.3     1  UNL1       -0.0653
     12 C           4.5981    0.2500    0.0000 C.2     1  UNL1        0.1402
     13 C           3.7320    0.7500    0.0000 C.3     1  UNL1        0.0613
     14 C           2.8660    0.2500    0.0000 C.2     1  UNL1        0.1274
     15 H           7.6636   -0.2249    0.0000 H       1  UNL1        0.0265
     16 H           8.4607   -0.2249    0.0000 H       1  UNL1        0.0265
     17 H           9.3267    1.2250    0.0000 H       1  UNL1        0.0265
     18 H           8.5297    1.2250    0.0000 H       1  UNL1        0.0265
     19 H           7.5947    1.2250    0.0000 H       1  UNL1        0.0265
     20 H           6.7976    1.2250    0.0000 H       1  UNL1        0.0265
     21 H           9.3957   -0.2249    0.0000 H       1  UNL1        0.0265
     22 H          10.1928   -0.2249    0.0000 H       1  UNL1        0.0265
     23 H           5.9316   -0.2249    0.0000 H       1  UNL1        0.0269
     24 H           6.7287   -0.2249    0.0000 H       1  UNL1        0.0269
     25 H          11.0588    1.2250    0.0000 H       1  UNL1        0.0265
     26 H          10.2617    1.2250    0.0000 H       1  UNL1        0.0265
     27 H           5.8626    1.2250    0.0000 H       1  UNL1        0.0342
     28 H           5.0656    1.2250    0.0000 H       1  UNL1        0.0342
     29 H          11.1278   -0.2249    0.0000 H       1  UNL1        0.0263
     30 H          11.9248   -0.2249    0.0000 H       1  UNL1        0.0263
     31 H          12.7023    0.2131    0.0000 H       1  UNL1        0.0230
     32 H          12.9292    1.0600    0.0000 H       1  UNL1        0.0230
     33 H          12.0823    1.2869    0.0000 H       1  UNL1        0.0230
     34 H           4.1306    1.2250    0.0000 H       1  UNL1        0.0416
     35 H           3.3335    1.2250    0.0000 H       1  UNL1        0.0416
     36 H           2.8660   -0.3700    0.0000 H       1  UNL1        0.1031
@<TRIPOS>BOND
     1     1    12    2
     2     2    14    2
     3     3     4    1
     4     3     5    1
     5     3    15    1
     6     3    16    1
     7     4     6    1
     8     4    17    1
     9     4    18    1
    10     5     7    1
    11     5    19    1
    12     5    20    1
    13     6     8    1
    14     6    21    1
    15     6    22    1
    16     7     9    1
    17     7    23    1
    18     7    24    1
    19     8    10    1
    20     8    25    1
    21     8    26    1
    22     9    12    1
    23     9    27    1
    24     9    28    1
    25    10    11    1
    26    10    29    1
    27    10    30    1
    28    11    31    1
    29    11    32    1
    30    11    33    1
    31    12    13    1
    32    13    14    1
    33    13    34    1
    34    13    35    1
    35    14    36    1
