@<TRIPOS>MOLECULE
IMPHY017137
 31 32 0 0 0
SMALL
GASTEIGER

@<TRIPOS>ATOM
      1 O           6.9338   -1.3291    0.0000 O.3     1  UNL1       -0.4816
      2 O           2.5357    0.1984    0.0000 O.3     1  UNL1       -0.3875
      3 C           7.7998   -0.8291    0.0000 C.3     1  UNL1        0.1235
      4 C           6.0678    0.1709    0.0000 C.ar    1  UNL1        0.0169
      5 C           6.0678   -0.8291    0.0000 C.ar    1  UNL1        0.1289
      6 C           7.7998    0.1709    0.0000 C.2     1  UNL1       -0.0409
      7 C           8.7998   -0.8291    0.0000 C.3     1  UNL1       -0.0215
      8 C           8.2998   -1.6951    0.0000 C.3     1  UNL1       -0.0215
      9 C           6.9338    0.6709    0.0000 C.2     1  UNL1       -0.0513
     10 C           4.2678    0.1918    0.0000 C.ar    1  UNL1       -0.0186
     11 C           5.1738    0.7056    0.0000 C.ar    1  UNL1       -0.0455
     12 C           3.4037    0.6951    0.0000 C.3     1  UNL1        0.0774
     13 C           5.1738   -1.3637    0.0000 C.ar    1  UNL1       -0.0190
     14 C           4.2678   -0.8499    0.0000 C.ar    1  UNL1       -0.0526
     15 C           3.4075    1.6951    0.0000 C.3     1  UNL1       -0.0348
     16 H           8.3368    0.4809    0.0000 H       1  UNL1        0.0611
     17 H           8.7998   -1.4491    0.0000 H       1  UNL1        0.0271
     18 H           9.4198   -0.8291    0.0000 H       1  UNL1        0.0271
     19 H           8.7998   -0.2091    0.0000 H       1  UNL1        0.0271
     20 H           7.7629   -2.0051    0.0000 H       1  UNL1        0.0271
     21 H           8.6098   -2.2320    0.0000 H       1  UNL1        0.0271
     22 H           8.8368   -1.3851    0.0000 H       1  UNL1        0.0271
     23 H           6.9338    1.2909    0.0000 H       1  UNL1        0.0623
     24 H           5.1810    1.3256    0.0000 H       1  UNL1        0.0628
     25 H           2.6692    1.1229    0.0000 H       1  UNL1        0.0641
     26 H           5.1810   -1.9837    0.0000 H       1  UNL1        0.0654
     27 H           3.7320   -1.1619    0.0000 H       1  UNL1        0.0622
     28 H           4.0275    1.6927    0.0000 H       1  UNL1        0.0258
     29 H           3.4099    2.3151    0.0000 H       1  UNL1        0.0258
     30 H           2.7875    1.6975    0.0000 H       1  UNL1        0.0258
     31 H           2.0000    0.5105    0.0000 H       1  UNL1        0.2102
@<TRIPOS>BOND
     1     1     3    1
     2     1     5    1
     3     2    12    1
     4     2    31    1
     5     3     6    1
     6     3     7    1
     7     3     8    1
     8     4     5   ar
     9     4     9    1
    10     4    11   ar
    11     5    13   ar
    12     6     9    2
    13     6    16    1
    14     7    17    1
    15     7    18    1
    16     7    19    1
    17     8    20    1
    18     8    21    1
    19     8    22    1
    20     9    23    1
    21    10    11   ar
    22    10    12    1
    23    10    14   ar
    24    11    24    1
    25    12    15    1
    26    12    25    1
    27    13    14   ar
    28    13    26    1
    29    14    27    1
    30    15    28    1
    31    15    29    1
    32    15    30    1
