@<TRIPOS>MOLECULE
IMPHY017004
 26 26 0 0 0
SMALL
GASTEIGER

@<TRIPOS>ATOM
      1 O           2.8660   -3.3450    0.0000 O.3     1  UNL1       -0.5068
      2 O           5.4641    2.1550    0.0000 O.2     1  UNL1       -0.2761
      3 N           3.7320    2.1550    0.0000 N.am    1  UNL1       -0.3152
      4 C           2.8660    0.6550    0.0000 C.3     1  UNL1       -0.0121
      5 C           3.7320    1.1550    0.0000 C.3     1  UNL1        0.0156
      6 C           2.8660   -0.3450    0.0000 C.ar    1  UNL1       -0.0457
      7 C           2.0000   -0.8450    0.0000 C.ar    1  UNL1       -0.0551
      8 C           3.7320   -0.8450    0.0000 C.ar    1  UNL1       -0.0551
      9 C           2.0000   -1.8450    0.0000 C.ar    1  UNL1       -0.0199
     10 C           3.7320   -1.8450    0.0000 C.ar    1  UNL1       -0.0199
     11 C           2.8660   -2.3450    0.0000 C.ar    1  UNL1        0.1169
     12 C           4.5981    2.6550    0.0000 C.2     1  UNL1        0.2099
     13 C           4.5981    3.6550    0.0000 C.3     1  UNL1        0.0121
     14 H           2.6540    1.2376    0.0000 H       1  UNL1        0.0328
     15 H           2.2554    0.5473    0.0000 H       1  UNL1        0.0328
     16 H           3.9441    0.5724    0.0000 H       1  UNL1        0.0465
     17 H           4.3426    1.2627    0.0000 H       1  UNL1        0.0465
     18 H           1.4631   -0.5350    0.0000 H       1  UNL1        0.0621
     19 H           4.2690   -0.5350    0.0000 H       1  UNL1        0.0621
     20 H           3.1951    2.4650    0.0000 H       1  UNL1        0.1487
     21 H           1.4631   -2.1550    0.0000 H       1  UNL1        0.0654
     22 H           4.2690   -2.1550    0.0000 H       1  UNL1        0.0654
     23 H           5.2181    3.6550    0.0000 H       1  UNL1        0.0322
     24 H           4.5981    4.2750    0.0000 H       1  UNL1        0.0322
     25 H           3.9781    3.6550    0.0000 H       1  UNL1        0.0322
     26 H           2.3291   -3.6550    0.0000 H       1  UNL1        0.2921
@<TRIPOS>BOND
     1     1    11    1
     2     1    26    1
     3     2    12    2
     4     3     5    1
     5     3    12   am
     6     3    20    1
     7     4     5    1
     8     4     6    1
     9     4    14    1
    10     4    15    1
    11     5    16    1
    12     5    17    1
    13     6     7   ar
    14     6     8   ar
    15     7     9   ar
    16     7    18    1
    17     8    10   ar
    18     8    19    1
    19     9    11   ar
    20     9    21    1
    21    10    11   ar
    22    10    22    1
    23    12    13    1
    24    13    23    1
    25    13    24    1
    26    13    25    1
