@<TRIPOS>MOLECULE
IMPHY001093
 53 55 0 0 0
SMALL
GASTEIGER

@<TRIPOS>ATOM
      1 S           2.8660   -1.5000    0.0000 S.3     1  UNL1       -0.1286
      2 O           8.9282   -0.0000    0.0000 O.2     1  UNL1       -0.2686
      3 O           8.9282   -1.0000    0.0000 O.2     1  UNL1       -0.2699
      4 N           8.0622    3.5000    0.0000 N.3     1  UNL1       -0.3024
      5 N           8.0622    1.5000    0.0000 N.am    1  UNL1       -0.2941
      6 N           7.1962   -1.0000    0.0000 N.am    1  UNL1       -0.2773
      7 C           8.9282    3.0000    0.0000 C.3     1  UNL1        0.0145
      8 C           7.1962    3.0000    0.0000 C.3     1  UNL1        0.0145
      9 C           8.9282    2.0000    0.0000 C.3     1  UNL1        0.0278
     10 C           7.1962    2.0000    0.0000 C.3     1  UNL1        0.0278
     11 C           8.0622    4.5000    0.0000 C.3     1  UNL1       -0.0126
     12 C           8.0622    0.5000    0.0000 C.2     1  UNL1        0.2609
     13 C           7.1962   -0.0000    0.0000 C.2     1  UNL1        0.0969
     14 C           6.3301    0.5000    0.0000 C.2     1  UNL1       -0.0282
     15 C           5.4641   -0.0000    0.0000 C.ar    1  UNL1       -0.0231
     16 C           8.0622   -1.5000    0.0000 C.2     1  UNL1        0.2484
     17 C           4.5981    0.5000    0.0000 C.ar    1  UNL1       -0.0535
     18 C           5.4641   -1.0000    0.0000 C.ar    1  UNL1       -0.0535
     19 C           8.0622   -2.5000    0.0000 C.ar    1  UNL1        0.0370
     20 C           3.7320    0.0000    0.0000 C.ar    1  UNL1       -0.0478
     21 C           4.5981   -1.5000    0.0000 C.ar    1  UNL1       -0.0478
     22 C           3.7320   -1.0000    0.0000 C.ar    1  UNL1        0.0077
     23 C           7.1962   -3.0000    0.0000 C.ar    1  UNL1       -0.0496
     24 C           8.9282   -3.0000    0.0000 C.ar    1  UNL1       -0.0496
     25 C           7.1962   -4.0000    0.0000 C.ar    1  UNL1       -0.0610
     26 C           8.9282   -4.0000    0.0000 C.ar    1  UNL1       -0.0610
     27 C           8.0622   -4.5000    0.0000 C.ar    1  UNL1       -0.0617
     28 C           2.0000   -1.0000    0.0000 C.3     1  UNL1       -0.0135
     29 H           6.9841    3.5826    0.0000 H       1  UNL1        0.0442
     30 H           6.5856    2.8923    0.0000 H       1  UNL1        0.0442
     31 H           9.5388    2.8923    0.0000 H       1  UNL1        0.0442
     32 H           9.1403    3.5826    0.0000 H       1  UNL1        0.0442
     33 H           9.1403    1.4174    0.0000 H       1  UNL1        0.0477
     34 H           9.5388    2.1077    0.0000 H       1  UNL1        0.0477
     35 H           6.5856    2.1077    0.0000 H       1  UNL1        0.0477
     36 H           6.9841    1.4174    0.0000 H       1  UNL1        0.0477
     37 H           8.6822    4.5000    0.0000 H       1  UNL1        0.0391
     38 H           8.0622    5.1200    0.0000 H       1  UNL1        0.0391
     39 H           7.4422    4.5000    0.0000 H       1  UNL1        0.0391
     40 H           6.3301    1.1200    0.0000 H       1  UNL1        0.0644
     41 H           6.6592   -1.3100    0.0000 H       1  UNL1        0.1553
     42 H           4.5981    1.1200    0.0000 H       1  UNL1        0.0624
     43 H           6.0010   -1.3100    0.0000 H       1  UNL1        0.0624
     44 H           3.1951    0.3100    0.0000 H       1  UNL1        0.0629
     45 H           4.5981   -2.1200    0.0000 H       1  UNL1        0.0629
     46 H           6.6592   -2.6900    0.0000 H       1  UNL1        0.0625
     47 H           9.4651   -2.6900    0.0000 H       1  UNL1        0.0625
     48 H           6.6592   -4.3100    0.0000 H       1  UNL1        0.0618
     49 H           9.4651   -4.3100    0.0000 H       1  UNL1        0.0618
     50 H           8.0622   -5.1200    0.0000 H       1  UNL1        0.0618
     51 H           2.3100   -0.4631    0.0000 H       1  UNL1        0.0344
     52 H           1.4631   -0.6900    0.0000 H       1  UNL1        0.0344
     53 H           1.6900   -1.5369    0.0000 H       1  UNL1        0.0344
@<TRIPOS>BOND
     1     1    22    1
     2     1    28    1
     3     2    12    2
     4     3    16    2
     5     4     7    1
     6     4     8    1
     7     4    11    1
     8     5     9    1
     9     5    10    1
    10     5    12   am
    11     6    13    1
    12     6    16   am
    13     6    41    1
    14     7     9    1
    15     7    31    1
    16     7    32    1
    17     8    10    1
    18     8    29    1
    19     8    30    1
    20     9    33    1
    21     9    34    1
    22    10    35    1
    23    10    36    1
    24    11    37    1
    25    11    38    1
    26    11    39    1
    27    12    13    1
    28    13    14    2
    29    14    15    1
    30    14    40    1
    31    15    17   ar
    32    15    18   ar
    33    16    19    1
    34    17    20   ar
    35    17    42    1
    36    18    21   ar
    37    18    43    1
    38    19    23   ar
    39    19    24   ar
    40    20    22   ar
    41    20    44    1
    42    21    22   ar
    43    21    45    1
    44    23    25   ar
    45    23    46    1
    46    24    26   ar
    47    24    47    1
    48    25    27   ar
    49    25    48    1
    50    26    27   ar
    51    26    49    1
    52    27    50    1
    53    28    51    1
    54    28    52    1
    55    28    53    1
