@<TRIPOS>MOLECULE
IMPHY012926
 52 53 0 0 0
SMALL
GASTEIGER

@<TRIPOS>ATOM
      1 O           6.5228   -2.4064    0.0000 O.3     1  UNL1       -0.4532
      2 O           5.0000    0.5654    0.0000 O.3     1  UNL1       -0.4570
      3 O           7.5980    3.0654    0.0000 O.3     1  UNL1       -0.3874
      4 O           9.3301    0.0654    0.0000 O.3     1  UNL1       -0.3874
      5 O           5.0341   -3.3754    0.0000 O.2     1  UNL1       -0.2453
      6 O           3.5000   -0.3006    0.0000 O.2     1  UNL1       -0.2453
      7 C           5.8660   -0.9346    0.0000 C.3     1  UNL1        0.0683
      8 C           5.8660    0.0654    0.0000 C.3     1  UNL1        0.1178
      9 C           6.7320   -1.4346    0.0000 C.3     1  UNL1        0.1322
     10 C           6.7320    0.5654    0.0000 C.3     1  UNL1        0.0084
     11 C           5.1290   -1.6016    0.0000 C.2     1  UNL1        0.0400
     12 C           7.5980   -0.9346    0.0000 C.2     1  UNL1       -0.0419
     13 C           6.7320    1.5654    0.0000 C.2     1  UNL1       -0.0449
     14 C           7.5980    2.0654    0.0000 C.3     1  UNL1        0.0788
     15 C           8.4640    1.5654    0.0000 C.3     1  UNL1        0.0070
     16 C           8.4640    0.5654    0.0000 C.3     1  UNL1        0.0788
     17 C           7.5980    0.0654    0.0000 C.2     1  UNL1       -0.0449
     18 C           5.5341   -2.5094    0.0000 C.2     1  UNL1        0.3357
     19 C           4.1784   -1.9123    0.0000 C.2     1  UNL1       -0.0882
     20 C           7.3928    0.6293    0.0000 C.3     1  UNL1       -0.0413
     21 C           5.8660    2.0654    0.0000 C.2     1  UNL1       -0.0969
     22 C           4.0000    0.5655    0.0000 C.2     1  UNL1        0.3349
     23 C           3.5000    1.4316    0.0000 C.2     1  UNL1        0.0293
     24 C           4.0000    2.2975    0.0000 C.3     1  UNL1       -0.0333
     25 C           2.5000    1.4316    0.0000 C.2     1  UNL1       -0.0774
     26 C           2.0000    2.2976    0.0000 C.3     1  UNL1       -0.0461
     27 H           5.2992   -0.6831    0.0000 H       1  UNL1        0.0427
     28 H           5.8660    0.6854    0.0000 H       1  UNL1        0.0744
     29 H           7.2331   -1.7996    0.0000 H       1  UNL1        0.0787
     30 H           6.9440   -0.0172    0.0000 H       1  UNL1        0.0347
     31 H           7.3426    0.6731    0.0000 H       1  UNL1        0.0347
     32 H           8.1350   -1.2446    0.0000 H       1  UNL1        0.0609
     33 H           8.1350    2.3754    0.0000 H       1  UNL1        0.0641
     34 H           9.0746    1.4578    0.0000 H       1  UNL1        0.0322
     35 H           8.6761    2.1481    0.0000 H       1  UNL1        0.0322
     36 H           8.4640   -0.0546    0.0000 H       1  UNL1        0.0641
     37 H           3.7170   -1.4982    0.0000 H       1  UNL1        0.0540
     38 H           4.0506   -2.5190    0.0000 H       1  UNL1        0.0540
     39 H           7.9754    0.8413    0.0000 H       1  UNL1        0.0275
     40 H           7.1808    1.2119    0.0000 H       1  UNL1        0.0275
     41 H           6.8102    0.4172    0.0000 H       1  UNL1        0.0275
     42 H           5.8660    2.6854    0.0000 H       1  UNL1        0.0535
     43 H           5.3290    1.7554    0.0000 H       1  UNL1        0.0535
     44 H           8.1350    3.3754    0.0000 H       1  UNL1        0.2102
     45 H           9.8670    0.3754    0.0000 H       1  UNL1        0.2102
     46 H           4.5369    1.9875    0.0000 H       1  UNL1        0.0280
     47 H           4.3100    2.8344    0.0000 H       1  UNL1        0.0280
     48 H           3.4630    2.6075    0.0000 H       1  UNL1        0.0280
     49 H           2.1900    0.8946    0.0000 H       1  UNL1        0.0574
     50 H           2.5369    2.6076    0.0000 H       1  UNL1        0.0272
     51 H           1.6900    2.8345    0.0000 H       1  UNL1        0.0272
     52 H           1.4631    1.9876    0.0000 H       1  UNL1        0.0272
@<TRIPOS>BOND
     1     1     9    1
     2     1    18    1
     3     2     8    1
     4     2    22    1
     5     3    14    1
     6     3    44    1
     7     4    16    1
     8     4    45    1
     9     5    18    2
    10     6    22    2
    11     7     8    1
    12     7     9    1
    13     7    11    1
    14     7    27    1
    15     8    10    1
    16     8    28    1
    17     9    12    1
    18     9    29    1
    19    10    13    1
    20    10    30    1
    21    10    31    1
    22    11    18    1
    23    11    19    2
    24    12    17    2
    25    12    32    1
    26    13    14    1
    27    13    21    2
    28    14    15    1
    29    14    33    1
    30    15    16    1
    31    15    34    1
    32    15    35    1
    33    16    17    1
    34    16    36    1
    35    17    20    1
    36    19    37    1
    37    19    38    1
    38    20    39    1
    39    20    40    1
    40    20    41    1
    41    21    42    1
    42    21    43    1
    43    22    23    1
    44    23    24    1
    45    23    25    2
    46    24    46    1
    47    24    47    1
    48    24    48    1
    49    25    26    1
    50    25    49    1
    51    26    50    1
    52    26    51    1
    53    26    52    1
