@<TRIPOS>MOLECULE
IMPHY009850
 42 44 0 0 0
SMALL
GASTEIGER

@<TRIPOS>ATOM
      1 O           4.3447    1.8926    0.0000 O.3     1  UNL1       -0.3912
      2 C           3.8839   -0.2718    0.0000 C.3     1  UNL1       -0.0158
      3 C           3.0749    0.3160    0.0000 C.3     1  UNL1       -0.0181
      4 C           3.3839    1.2670    0.0000 C.3     1  UNL1       -0.0002
      5 C           3.7910   -1.3093    0.0000 C.3     1  UNL1       -0.0286
      6 C           4.1379    0.2408    0.0000 C.3     1  UNL1       -0.0197
      7 C           4.6929    0.3160    0.0000 C.3     1  UNL1       -0.0457
      8 C           3.8907    1.0016    0.0000 C.3     1  UNL1        0.0617
      9 C           4.3839    1.2670    0.0000 C.3     1  UNL1       -0.0442
     10 C           2.1169   -0.0930    0.0000 C.3     1  UNL1       -0.0465
     11 C           2.8427   -1.7403    0.0000 C.3     1  UNL1       -0.0473
     12 C           2.2658    0.9038    0.0000 C.3     1  UNL1       -0.0585
     13 C           2.0000   -1.1280    0.0000 C.3     1  UNL1       -0.0520
     14 C           3.0749    2.2181    0.0000 C.3     1  UNL1       -0.0567
     15 C           4.2082   -2.2181    0.0000 C.3     1  UNL1       -0.0593
     16 C           4.7866   -1.4023    0.0000 C.3     1  UNL1       -0.0593
     17 H           4.6017   -0.1706    0.0000 H       1  UNL1        0.0296
     18 H           4.6566    0.5804    0.0000 H       1  UNL1        0.0296
     19 H           5.0029   -0.2210    0.0000 H       1  UNL1        0.0271
     20 H           5.2593    0.5681    0.0000 H       1  UNL1        0.0271
     21 H           4.5088    0.9530    0.0000 H       1  UNL1        0.0599
     22 H           4.9903    1.3959    0.0000 H       1  UNL1        0.0272
     23 H           4.3191    1.8836    0.0000 H       1  UNL1        0.0272
     24 H           1.9746    0.5105    0.0000 H       1  UNL1        0.0271
     25 H           1.4980   -0.1299    0.0000 H       1  UNL1        0.0271
     26 H           2.3978   -2.1721    0.0000 H       1  UNL1        0.0271
     27 H           3.1920   -2.2525    0.0000 H       1  UNL1        0.0271
     28 H           2.6303    1.4053    0.0000 H       1  UNL1        0.0235
     29 H           1.7642    1.2682    0.0000 H       1  UNL1        0.0235
     30 H           1.9014    0.4022    0.0000 H       1  UNL1        0.0235
     31 H           1.4049   -0.9541    0.0000 H       1  UNL1        0.0266
     32 H           1.7268   -1.6846    0.0000 H       1  UNL1        0.0266
     33 H           3.6645    2.4097    0.0000 H       1  UNL1        0.0236
     34 H           2.8833    2.8077    0.0000 H       1  UNL1        0.0236
     35 H           2.4852    2.0265    0.0000 H       1  UNL1        0.0236
     36 H           4.7290   -2.0196    0.0000 H       1  UNL1        0.0235
     37 H           5.4040   -1.4600    0.0000 H       1  UNL1        0.0235
     38 H           4.8443   -0.7850    0.0000 H       1  UNL1        0.0235
     39 H           3.6448   -2.4768    0.0000 H       1  UNL1        0.0235
     40 H           4.4670   -2.7815    0.0000 H       1  UNL1        0.0235
     41 H           4.7717   -1.9594    0.0000 H       1  UNL1        0.0235
     42 H           4.9638    1.9251    0.0000 H       1  UNL1        0.2098
@<TRIPOS>BOND
     1     8     1    1
     2     1    42    1
     3     2     3    1
     4     2     5    1
     5     2     6    1
     6     2     7    1
     7     3     4    1
     8     3    10    1
     9     3    12    1
    10     4     8    1
    11     4     9    1
    12     4    14    1
    13     5    11    1
    14     5    15    1
    15     5    16    1
    16     6     8    1
    17     6    17    1
    18     6    18    1
    19     7     9    1
    20     7    19    1
    21     7    20    1
    22     8    21    1
    23     9    22    1
    24     9    23    1
    25    10    13    1
    26    10    24    1
    27    10    25    1
    28    11    13    1
    29    11    26    1
    30    11    27    1
    31    12    28    1
    32    12    29    1
    33    12    30    1
    34    13    31    1
    35    13    32    1
    36    14    33    1
    37    14    34    1
    38    14    35    1
    39    15    39    1
    40    15    40    1
    41    15    41    1
    42    16    36    1
    43    16    37    1
    44    16    38    1
