@<TRIPOS>MOLECULE
IMPHY013467
 47 49 0 0 0
SMALL
GASTEIGER

@<TRIPOS>ATOM
      1 O           6.8671   -0.9050    0.0000 O.3     1  UNL1       -0.3093
      2 O           5.1350   -0.9050    0.0000 O.3     1  UNL1       -0.3404
      3 O           6.0010    0.5950    0.0000 O.2     1  UNL1       -0.4699
      4 O           6.8671   -2.9050    0.0000 O.3     1  UNL1       -0.3841
      5 O           5.1350   -3.9050    0.0000 O.3     1  UNL1       -0.3864
      6 O           3.4030   -2.9050    0.0000 O.3     1  UNL1       -0.3865
      7 O           2.5369   -1.4050    0.0000 O.3     1  UNL1       -0.3924
      8 O           9.9685   -0.8665    0.0000 O.3     1  UNL1       -0.4773
      9 O           8.3221   -1.4046    0.0000 O.2     1  UNL1       -0.2455
     10 O           6.0010    3.5950    0.0000 O.3     1  UNL1       -0.4773
     11 O           7.7331    3.5950    0.0000 O.2     1  UNL1       -0.2454
     12 C           7.7331    0.5950    0.0000 C.3     1  UNL1        0.0605
     13 C           7.7331    1.5950    0.0000 C.3     1  UNL1        0.0100
     14 C           6.8671    0.0950    0.0000 C.3     1  UNL1        0.2110
     15 C           8.6793    1.8997    0.0000 C.3     1  UNL1       -0.0261
     16 C           6.0010   -1.4050    0.0000 C.3     1  UNL1        0.1918
     17 C           8.6793    0.2903    0.0000 C.2     1  UNL1        0.0421
     18 C           6.0010   -2.4050    0.0000 C.3     1  UNL1        0.1342
     19 C           5.1350   -2.9050    0.0000 C.3     1  UNL1        0.1141
     20 C           4.2690   -2.4050    0.0000 C.3     1  UNL1        0.1119
     21 C           4.2690   -1.4050    0.0000 C.3     1  UNL1        0.1130
     22 C           6.8671    2.0950    0.0000 C.2     1  UNL1        0.0747
     23 C           9.2629    1.0950    0.0000 C.2     1  UNL1       -0.0730
     24 C           6.0010    1.5950    0.0000 C.2     1  UNL1        0.0981
     25 C           3.4030   -0.9050    0.0000 C.3     1  UNL1        0.0730
     26 C           8.9900   -0.6603    0.0000 C.2     1  UNL1        0.3330
     27 C           6.8671    3.0950    0.0000 C.2     1  UNL1        0.3360
     28 H           7.8230   -0.2502    0.0000 H       1  UNL1        0.0418
     29 H           7.8230    2.4402    0.0000 H       1  UNL1        0.0363
     30 H           7.4040   -0.2150    0.0000 H       1  UNL1        0.1063
     31 H           9.2167    2.2090    0.0000 H       1  UNL1        0.0314
     32 H           8.4283    2.4666    0.0000 H       1  UNL1        0.0314
     33 H           6.0010   -0.7850    0.0000 H       1  UNL1        0.0939
     34 H           6.0010   -3.0250    0.0000 H       1  UNL1        0.0671
     35 H           4.5981   -3.2150    0.0000 H       1  UNL1        0.0648
     36 H           4.2690   -3.0250    0.0000 H       1  UNL1        0.0647
     37 H           4.2690   -0.7850    0.0000 H       1  UNL1        0.0647
     38 H           9.8829    1.0950    0.0000 H       1  UNL1        0.0577
     39 H           5.4641    1.9050    0.0000 H       1  UNL1        0.1029
     40 H           3.8015   -0.4301    0.0000 H       1  UNL1        0.0584
     41 H           3.0044   -0.4301    0.0000 H       1  UNL1        0.0584
     42 H           6.8671   -3.5250    0.0000 H       1  UNL1        0.2101
     43 H           4.5981   -4.2150    0.0000 H       1  UNL1        0.2100
     44 H           3.4030   -3.5250    0.0000 H       1  UNL1        0.2100
     45 H           2.0000   -1.0950    0.0000 H       1  UNL1        0.2095
     46 H          10.1611   -1.4558    0.0000 H       1  UNL1        0.2954
     47 H           6.0010    4.2150    0.0000 H       1  UNL1        0.2954
@<TRIPOS>BOND
     1    14     1    1
     2    16     1    1
     3     2    16    1
     4     2    21    1
     5     3    14    1
     6     3    24    1
     7    18     4    1
     8     4    42    1
     9    19     5    1
    10     5    43    1
    11    20     6    1
    12     6    44    1
    13     7    25    1
    14     7    45    1
    15     8    26    1
    16     8    46    1
    17     9    26    2
    18    10    27    1
    19    10    47    1
    20    11    27    2
    21    12    13    1
    22    12    14    1
    23    12    17    1
    24    12    28    1
    25    13    15    1
    26    13    22    1
    27    13    29    1
    28    14    30    1
    29    15    23    1
    30    15    31    1
    31    15    32    1
    32    16    18    1
    33    16    33    1
    34    17    23    2
    35    17    26    1
    36    18    19    1
    37    18    34    1
    38    19    20    1
    39    19    35    1
    40    20    21    1
    41    20    36    1
    42    21    25    1
    43    21    37    1
    44    22    24    2
    45    22    27    1
    46    23    38    1
    47    24    39    1
    48    25    40    1
    49    25    41    1
