@<TRIPOS>MOLECULE
IMPHY014270
 32 34 0 0 0
SMALL
GASTEIGER

@<TRIPOS>ATOM
      1 O           6.4144    1.8592    0.0000 O.3     1  UNL1       -0.3863
      2 O           4.6660    1.8246    0.0000 O.2     1  UNL1       -0.5057
      3 O           8.1962   -1.1995    0.0000 O.2     1  UNL1       -0.2923
      4 O           4.6660   -2.1754    0.0000 O.2     1  UNL1       -0.2866
      5 O           2.9176    1.8592    0.0000 O.3     1  UNL1       -0.5060
      6 C           6.4260    0.8593    0.0000 C.3     1  UNL1        0.0938
      7 C           7.3321    0.3454    0.0000 C.3     1  UNL1        0.0489
      8 C           5.5321    0.3246    0.0000 C.2     1  UNL1        0.0346
      9 C           5.5321   -0.6754    0.0000 C.2     1  UNL1        0.0347
     10 C           7.3321   -0.6962    0.0000 C.2     1  UNL1        0.1623
     11 C           4.6660    0.8246    0.0000 C.2     1  UNL1        0.1345
     12 C           6.4260   -1.2100    0.0000 C.2     1  UNL1       -0.0076
     13 C           3.8000    0.3246    0.0000 C.ar    1  UNL1        0.0689
     14 C           8.1962    0.8488    0.0000 C.3     1  UNL1       -0.0527
     15 C           3.8000   -0.6754    0.0000 C.ar    1  UNL1        0.0364
     16 C           4.6660   -1.1754    0.0000 C.2     1  UNL1        0.1945
     17 C           2.9061    0.8593    0.0000 C.ar    1  UNL1        0.1282
     18 C           2.9061   -1.2100    0.0000 C.ar    1  UNL1       -0.0500
     19 C           2.0000    0.3454    0.0000 C.ar    1  UNL1       -0.0194
     20 C           2.0000   -0.6962    0.0000 C.ar    1  UNL1       -0.0576
     21 H           5.8849    1.1620    0.0000 H       1  UNL1        0.0652
     22 H           7.3285    0.9654    0.0000 H       1  UNL1        0.0407
     23 H           6.4188   -1.8300    0.0000 H       1  UNL1        0.0660
     24 H           8.5082    0.3130    0.0000 H       1  UNL1        0.0237
     25 H           8.7319    1.1608    0.0000 H       1  UNL1        0.0237
     26 H           7.8841    1.3845    0.0000 H       1  UNL1        0.0237
     27 H           6.9478    2.1754    0.0000 H       1  UNL1        0.2103
     28 H           2.9132   -1.8300    0.0000 H       1  UNL1        0.0625
     29 H           1.4643    0.6575    0.0000 H       1  UNL1        0.0654
     30 H           1.4643   -1.0083    0.0000 H       1  UNL1        0.0619
     31 H           4.1291    2.1346    0.0000 H       1  UNL1        0.2922
     32 H           2.3843    2.1754    0.0000 H       1  UNL1        0.2922
@<TRIPOS>BOND
     1     1     6    1
     2     1    27    1
     3     2    11    1
     4     2    31    1
     5     3    10    2
     6     4    16    2
     7     5    17    1
     8     5    32    1
     9     6     7    1
    10     6     8    1
    11     6    21    1
    12     7    10    1
    13     7    14    1
    14     7    22    1
    15     8     9    1
    16     8    11    2
    17     9    12    2
    18     9    16    1
    19    10    12    1
    20    11    13    1
    21    12    23    1
    22    13    15   ar
    23    13    17   ar
    24    14    24    1
    25    14    25    1
    26    14    26    1
    27    15    16    1
    28    15    18   ar
    29    17    19   ar
    30    18    20   ar
    31    18    28    1
    32    19    20   ar
    33    19    29    1
    34    20    30    1
