@<TRIPOS>MOLECULE
IMPHY004343
 47 51 0 0 0
SMALL
GASTEIGER

@<TRIPOS>ATOM
      1 O           5.7031    2.9742    0.0000 O.3     1  UNL1       -0.4568
      2 O           6.5682   -1.4890    0.0000 O.3     1  UNL1       -0.4558
      3 O           3.7023    2.4160    0.0000 O.3     1  UNL1       -0.3940
      4 O           2.5381    0.0257    0.0000 O.3     1  UNL1       -0.3877
      5 O           7.8044   -0.9125    0.0000 O.2     1  UNL1       -0.2498
      6 O           4.1718    3.8368    0.0000 O.2     1  UNL1       -0.2453
      7 O           4.4805   -3.8368    0.0000 O.2     1  UNL1       -0.4706
      8 C           5.2022    1.5498    0.0000 C.3     1  UNL1        0.0667
      9 C           5.2022    0.5499    0.0000 C.3     1  UNL1       -0.0034
     10 C           6.0682    0.0499    0.0000 C.3     1  UNL1        0.0961
     11 C           6.0682    2.0498    0.0000 C.3     1  UNL1        0.1192
     12 C           4.3083    0.0152    0.0000 C.3     1  UNL1       -0.0181
     13 C           4.3083    2.0845    0.0000 C.2     1  UNL1        0.0472
     14 C           6.9343    1.5498    0.0000 C.3     1  UNL1        0.0073
     15 C           6.9343    0.5499    0.0000 C.2     1  UNL1       -0.0560
     16 C           5.2592   -0.5379    0.0000 C.3     1  UNL1        0.0085
     17 C           4.2022    1.5500    0.0000 C.3     1  UNL1        0.0577
     18 C           3.4022    0.5290    0.0000 C.3     1  UNL1        0.0744
     19 C           6.8773   -0.5379    0.0000 C.2     1  UNL1        0.3184
     20 C           5.5682   -1.4890    0.0000 C.3     1  UNL1        0.1323
     21 C           3.4022    1.5707    0.0000 C.2     1  UNL1       -0.0452
     22 C           4.7095    2.9937    0.0000 C.2     1  UNL1        0.3360
     23 C           7.9191    0.7235    0.0000 C.2     1  UNL1       -0.0983
     24 C           4.9805   -2.2980    0.0000 C.ar    1  UNL1        0.0304
     25 C           3.9805   -2.2980    0.0000 C.ar    1  UNL1       -0.0172
     26 C           5.2895   -3.2491    0.0000 C.ar    1  UNL1        0.0983
     27 C           3.6714   -3.2491    0.0000 C.ar    1  UNL1        0.0921
     28 H           5.2088   -0.3001    0.0000 H       1  UNL1        0.0326
     29 H           6.7119    2.6050    0.0000 H       1  UNL1        0.0747
     30 H           3.9147   -0.4638    0.0000 H       1  UNL1        0.0297
     31 H           4.7129   -0.4546    0.0000 H       1  UNL1        0.0297
     32 H           7.5449    1.4422    0.0000 H       1  UNL1        0.0346
     33 H           7.1463    2.1325    0.0000 H       1  UNL1        0.0346
     34 H           4.9492   -0.0010    0.0000 H       1  UNL1        0.0318
     35 H           4.6928   -0.7901    0.0000 H       1  UNL1        0.0318
     36 H           3.6196    1.3380    0.0000 H       1  UNL1        0.0567
     37 H           4.3098    0.9394    0.0000 H       1  UNL1        0.0567
     38 H           2.8647    0.8380    0.0000 H       1  UNL1        0.0638
     39 H           5.8497   -2.0414    0.0000 H       1  UNL1        0.0787
     40 H           2.8665    1.8827    0.0000 H       1  UNL1        0.0603
     41 H           8.3176    0.2486    0.0000 H       1  UNL1        0.0535
     42 H           8.1311    1.3061    0.0000 H       1  UNL1        0.0535
     43 H           3.0824    2.4160    0.0000 H       1  UNL1        0.2094
     44 H           2.0000    0.3336    0.0000 H       1  UNL1        0.2102
     45 H           3.6160   -1.7964    0.0000 H       1  UNL1        0.0653
     46 H           5.8791   -3.4406    0.0000 H       1  UNL1        0.1033
     47 H           3.0818   -3.4406    0.0000 H       1  UNL1        0.1029
@<TRIPOS>BOND
     1     1    11    1
     2     1    22    1
     3     2    19    1
     4     2    20    1
     5     3    17    1
     6     3    43    1
     7    18     4    1
     8     4    44    1
     9     5    19    2
    10     6    22    2
    11     7    26   ar
    12     7    27   ar
    13     8     9    1
    14     8    11    1
    15     8    13    1
    16     8    17    1
    17     9    10    1
    18     9    12    1
    19     9    28    1
    20    10    15    1
    21    10    16    1
    22    10    19    1
    23    11    14    1
    24    11    29    1
    25    12    18    1
    26    12    30    1
    27    12    31    1
    28    13    21    2
    29    13    22    1
    30    14    15    1
    31    14    32    1
    32    14    33    1
    33    15    23    2
    34    16    20    1
    35    16    34    1
    36    16    35    1
    37    17    36    1
    38    17    37    1
    39    18    21    1
    40    18    38    1
    41    20    24    1
    42    20    39    1
    43    21    40    1
    44    23    41    1
    45    23    42    1
    46    24    25   ar
    47    24    26   ar
    48    25    27   ar
    49    25    45    1
    50    26    46    1
    51    27    47    1
