@<TRIPOS>MOLECULE
IMPHY005087
 43 46 0 0 0
SMALL
GASTEIGER

@<TRIPOS>ATOM
      1 O           3.9030   -1.0752    0.0000 O.3     1  UNL1       -0.3757
      2 O           2.8698   -0.4607    0.0000 O.3     1  UNL1       -0.4914
      3 O           2.8660    1.5918    0.0000 O.3     1  UNL1       -0.5033
      4 N           7.2787    0.0668    0.0000 N.3     1  UNL1       -0.2850
      5 C           6.4091   -0.4352    0.0000 C.3     1  UNL1        0.0755
      6 C           5.3894   -0.6384    0.0000 C.3     1  UNL1        0.0039
      7 C           6.6192   -1.4110    0.0000 C.2     1  UNL1       -0.0256
      8 C           5.5395    0.0668    0.0000 C.ar    1  UNL1       -0.0158
      9 C           7.2787    1.0709    0.0000 C.3     1  UNL1        0.0043
     10 C           8.0187   -0.6030    0.0000 C.3     1  UNL1        0.0188
     11 C           4.8699   -1.3305    0.0000 C.3     1  UNL1        0.0790
     12 C           6.4091    1.5730    0.0000 C.3     1  UNL1       -0.0144
     13 C           5.5395    1.0709    0.0000 C.ar    1  UNL1       -0.0372
     14 C           7.6119   -1.5146    0.0000 C.2     1  UNL1       -0.0648
     15 C           6.1128   -2.0537    0.0000 C.2     1  UNL1       -0.0583
     16 C           4.9828   -2.2118    0.0000 C.2     1  UNL1       -0.0553
     17 C           4.6418   -0.4701    0.0000 C.ar    1  UNL1       -0.0108
     18 C           4.6418    1.6078    0.0000 C.ar    1  UNL1       -0.0130
     19 C           3.7320    0.0459    0.0000 C.ar    1  UNL1        0.1616
     20 C           3.7320    1.0918    0.0000 C.ar    1  UNL1        0.1587
     21 C           3.1985   -1.7848    0.0000 C.3     1  UNL1        0.0372
     22 C           2.0000    0.0327    0.0000 C.3     1  UNL1        0.0790
     23 H           5.4411   -0.0205    0.0000 H       1  UNL1        0.0318
     24 H           4.8100   -0.4178    0.0000 H       1  UNL1        0.0318
     25 H           7.8892    0.9633    0.0000 H       1  UNL1        0.0430
     26 H           7.4907    1.6536    0.0000 H       1  UNL1        0.0430
     27 H           8.5552   -0.9138    0.0000 H       1  UNL1        0.0470
     28 H           8.3841   -0.1022    0.0000 H       1  UNL1        0.0470
     29 H           5.2497   -0.7448    0.0000 H       1  UNL1        0.0641
     30 H           6.8076    2.0480    0.0000 H       1  UNL1        0.0326
     31 H           6.0106    2.0480    0.0000 H       1  UNL1        0.0326
     32 H           7.9219   -2.0515    0.0000 H       1  UNL1        0.0588
     33 H           6.4215   -2.5914    0.0000 H       1  UNL1        0.0619
     34 H           4.6066   -2.7046    0.0000 H       1  UNL1        0.0598
     35 H           4.6490   -1.0900    0.0000 H       1  UNL1        0.0659
     36 H           4.6490    2.2278    0.0000 H       1  UNL1        0.0658
     37 H           2.7585   -1.3480    0.0000 H       1  UNL1        0.0524
     38 H           2.7616   -2.2248    0.0000 H       1  UNL1        0.0524
     39 H           3.6384   -2.2216    0.0000 H       1  UNL1        0.0524
     40 H           2.8660    2.2118    0.0000 H       1  UNL1        0.2923
     41 H           2.3059    0.5720    0.0000 H       1  UNL1        0.0660
     42 H           1.4607    0.3385    0.0000 H       1  UNL1        0.0660
     43 H           1.6941   -0.5066    0.0000 H       1  UNL1        0.0660
@<TRIPOS>BOND
     1    11     1    1
     2     1    21    1
     3     2    19    1
     4     2    22    1
     5     3    20    1
     6     3    40    1
     7     4     5    1
     8     4     9    1
     9     4    10    1
    10     5     6    1
    11     5     7    1
    12     5     8    1
    13     6    11    1
    14     6    23    1
    15     6    24    1
    16     7    14    2
    17     7    15    1
    18     8    13   ar
    19     8    17   ar
    20     9    12    1
    21     9    25    1
    22     9    26    1
    23    10    14    1
    24    10    27    1
    25    10    28    1
    26    11    16    1
    27    11    29    1
    28    12    13    1
    29    12    30    1
    30    12    31    1
    31    13    18   ar
    32    14    32    1
    33    15    16    2
    34    15    33    1
    35    16    34    1
    36    17    19   ar
    37    17    35    1
    38    18    20   ar
    39    18    36    1
    40    19    20   ar
    41    21    37    1
    42    21    38    1
    43    21    39    1
    44    22    41    1
    45    22    42    1
    46    22    43    1
