@<TRIPOS>MOLECULE
IMPHY000569
 69 74 0 0 0
SMALL
GASTEIGER

@<TRIPOS>ATOM
      1 O           7.1079    0.3808    0.0000 O.3     1  UNL1       -0.3259
      2 O           6.0682    0.8657    0.0000 O.3     1  UNL1       -0.4534
      3 O           6.6084   -2.2173    0.0000 O.3     1  UNL1       -0.4811
      4 O           7.8003    2.8656    0.0000 O.3     1  UNL1       -0.3819
      5 O           6.0682    3.8656    0.0000 O.3     1  UNL1       -0.3841
      6 O           4.3198    3.9002    0.0000 O.3     1  UNL1       -0.5062
      7 O           3.5766   -0.4640    0.0000 O.3     1  UNL1       -0.5063
      8 O           2.5381    0.8415    0.0000 O.3     1  UNL1       -0.5065
      9 O           9.9343   -0.3664    0.0000 O.3     1  UNL1       -0.5033
     10 O           3.5635   -4.0038    0.0000 O.3     1  UNL1       -0.5065
     11 O          10.9343    1.3656    0.0000 O.3     1  UNL1       -0.5033
     12 O           9.3355   -4.0045    0.0000 O.3     1  UNL1       -0.5033
     13 O          10.8672   -2.7186    0.0000 O.3     1  UNL1       -0.5033
     14 C           6.9343    1.3656    0.0000 C.3     1  UNL1        0.2686
     15 C           6.6080   -0.4852    0.0000 C.3     1  UNL1        0.1085
     16 C           6.9343    2.3656    0.0000 C.3     1  UNL1        0.1549
     17 C           7.1082   -1.3512    0.0000 C.3     1  UNL1        0.1517
     18 C           6.0682    2.8656    0.0000 C.3     1  UNL1        0.1193
     19 C           5.6080   -0.4854    0.0000 C.3     1  UNL1        0.0096
     20 C           7.9343    1.3656    0.0000 C.ar    1  UNL1        0.0298
     21 C           5.2022    2.3656    0.0000 C.ar    1  UNL1        0.0669
     22 C           5.1081   -1.3514    0.0000 C.ar    1  UNL1        0.0384
     23 C           5.2022    1.3656    0.0000 C.ar    1  UNL1        0.1373
     24 C           8.0480   -1.6931    0.0000 C.ar    1  UNL1       -0.0012
     25 C           5.6083   -2.2174    0.0000 C.ar    1  UNL1        0.1317
     26 C           4.3083    2.9003    0.0000 C.ar    1  UNL1        0.1295
     27 C           8.4343    0.4996    0.0000 C.ar    1  UNL1       -0.0071
     28 C           8.4343    2.2317    0.0000 C.ar    1  UNL1       -0.0486
     29 C           4.0667   -1.3356    0.0000 C.ar    1  UNL1        0.1270
     30 C           4.3083    0.8310    0.0000 C.ar    1  UNL1        0.0223
     31 C           5.1016   -3.1275    0.0000 C.ar    1  UNL1        0.0221
     32 C           8.2218   -2.6779    0.0000 C.ar    1  UNL1       -0.0098
     33 C           8.8140   -1.0501    0.0000 C.ar    1  UNL1       -0.0513
     34 C           3.4022    2.3865    0.0000 C.ar    1  UNL1        0.0219
     35 C           3.4022    1.3448    0.0000 C.ar    1  UNL1        0.1238
     36 C           9.4343    0.4996    0.0000 C.ar    1  UNL1        0.1587
     37 C           9.4343    2.2317    0.0000 C.ar    1  UNL1       -0.0161
     38 C           3.5391   -2.2338    0.0000 C.ar    1  UNL1        0.0218
     39 C           4.0600   -3.1357    0.0000 C.ar    1  UNL1        0.1238
     40 C           9.9343    1.3656    0.0000 C.ar    1  UNL1        0.1582
     41 C           9.1616   -3.0197    0.0000 C.ar    1  UNL1        0.1586
     42 C           9.7536   -1.3920    0.0000 C.ar    1  UNL1       -0.0162
     43 C           9.9275   -2.3768    0.0000 C.ar    1  UNL1        0.1582
     44 H           6.2979    0.0517    0.0000 H       1  UNL1        0.0641
     45 H           6.9343    2.9856    0.0000 H       1  UNL1        0.0693
     46 H           7.5067   -0.8762    0.0000 H       1  UNL1        0.0811
     47 H           5.5313    3.1756    0.0000 H       1  UNL1        0.0674
     48 H           5.7156    0.1252    0.0000 H       1  UNL1        0.0342
     49 H           5.0254   -0.2734    0.0000 H       1  UNL1        0.0342
     50 H           7.8003    3.4856    0.0000 H       1  UNL1        0.2102
     51 H           8.1243   -0.0373    0.0000 H       1  UNL1        0.0660
     52 H           8.1243    2.7686    0.0000 H       1  UNL1        0.0624
     53 H           4.3154    0.2110    0.0000 H       1  UNL1        0.0691
     54 H           6.6052    4.1756    0.0000 H       1  UNL1        0.2104
     55 H           5.4179   -3.6608    0.0000 H       1  UNL1        0.0691
     56 H           7.7470   -3.0765    0.0000 H       1  UNL1        0.0659
     57 H           8.7062   -0.4396    0.0000 H       1  UNL1        0.0623
     58 H           2.8665    2.6985    0.0000 H       1  UNL1        0.0691
     59 H           9.7443    2.7686    0.0000 H       1  UNL1        0.0655
     60 H           2.9191   -2.2315    0.0000 H       1  UNL1        0.0691
     61 H          10.2285   -0.9934    0.0000 H       1  UNL1        0.0655
     62 H           3.7865    4.2164    0.0000 H       1  UNL1        0.2922
     63 H           3.8927    0.0694    0.0000 H       1  UNL1        0.2921
     64 H           2.0000    1.1494    0.0000 H       1  UNL1        0.2921
     65 H          10.5543   -0.3664    0.0000 H       1  UNL1        0.2923
     66 H           2.9435   -4.0062    0.0000 H       1  UNL1        0.2921
     67 H          11.2443    1.9026    0.0000 H       1  UNL1        0.2923
     68 H           9.9180   -4.2164    0.0000 H       1  UNL1        0.2923
     69 H          10.9750   -3.3292    0.0000 H       1  UNL1        0.2923
@<TRIPOS>BOND
     1     1    14    1
     2     1    15    1
     3     2    14    1
     4     2    23    1
     5     3    17    1
     6     3    25    1
     7     4    16    1
     8     4    50    1
     9     5    18    1
    10     5    54    1
    11     6    26    1
    12     6    62    1
    13     7    29    1
    14     7    63    1
    15     8    35    1
    16     8    64    1
    17     9    36    1
    18     9    65    1
    19    10    39    1
    20    10    66    1
    21    11    40    1
    22    11    67    1
    23    12    41    1
    24    12    68    1
    25    13    43    1
    26    13    69    1
    27    14    16    1
    28    14    20    1
    29    15    17    1
    30    15    19    1
    31    15    44    1
    32    16    18    1
    33    16    45    1
    34    17    24    1
    35    17    46    1
    36    18    21    1
    37    18    47    1
    38    19    22    1
    39    19    48    1
    40    19    49    1
    41    20    27   ar
    42    20    28   ar
    43    21    23   ar
    44    21    26   ar
    45    22    25   ar
    46    22    29   ar
    47    23    30   ar
    48    24    32   ar
    49    24    33   ar
    50    25    31   ar
    51    26    34   ar
    52    27    36   ar
    53    27    51    1
    54    28    37   ar
    55    28    52    1
    56    29    38   ar
    57    30    35   ar
    58    30    53    1
    59    31    39   ar
    60    31    55    1
    61    32    41   ar
    62    32    56    1
    63    33    42   ar
    64    33    57    1
    65    34    35   ar
    66    34    58    1
    67    36    40   ar
    68    37    40   ar
    69    37    59    1
    70    38    39   ar
    71    38    60    1
    72    41    43   ar
    73    42    43   ar
    74    42    61    1
