@<TRIPOS>MOLECULE
IMPHY002835
 44 47 0 0 0
SMALL
GASTEIGER

@<TRIPOS>ATOM
      1 O           2.4545    1.4638    0.0000 O.3     1  UNL1       -0.3648
      2 O           5.6665    2.6123    0.0000 O.3     1  UNL1       -0.4606
      3 O           5.3918    0.8104    0.0000 O.3     1  UNL1       -0.4534
      4 O           3.7226   -2.0200    0.0000 O.3     1  UNL1       -0.4564
      5 O           7.2543    3.4213    0.0000 O.2     1  UNL1       -0.2505
      6 O           3.6046    0.7618    0.0000 O.2     1  UNL1       -0.2452
      7 O           2.0000   -1.8390    0.0000 O.2     1  UNL1       -0.2511
      8 C           3.4494    1.3590    0.0000 C.3     1  UNL1        0.0967
      9 C           2.8616    0.5500    0.0000 C.3     1  UNL1        0.0919
     10 C           4.4440    1.2545    0.0000 C.3     1  UNL1        0.0161
     11 C           5.3575    1.6612    0.0000 C.3     1  UNL1        0.1130
     12 C           6.1665    1.0734    0.0000 C.3     1  UNL1        0.0496
     13 C           3.0181   -0.4377    0.0000 C.3     1  UNL1        0.0179
     14 C           6.9755    1.6612    0.0000 C.3     1  UNL1        0.0635
     15 C           3.5541    2.3535    0.0000 C.3     1  UNL1       -0.0332
     16 C           6.0620    0.0789    0.0000 C.3     1  UNL1        0.1293
     17 C           3.8271   -1.0255    0.0000 C.3     1  UNL1        0.1369
     18 C           4.7406   -0.6188    0.0000 C.2     1  UNL1        0.0763
     19 C           6.6665    2.6123    0.0000 C.2     1  UNL1        0.3107
     20 C           5.6742   -0.9771    0.0000 C.2     1  UNL1       -0.0300
     21 C           7.9266    1.3522    0.0000 C.3     1  UNL1       -0.0518
     22 C           4.5146    0.3472    0.0000 C.2     1  UNL1        0.3391
     23 C           2.8090   -2.4268    0.0000 C.2     1  UNL1        0.3045
     24 C           2.7045   -3.4213    0.0000 C.3     1  UNL1        0.0333
     25 H           2.2672    0.3738    0.0000 H       1  UNL1        0.0626
     26 H           4.1722    0.6972    0.0000 H       1  UNL1        0.0330
     27 H           4.3470    1.8668    0.0000 H       1  UNL1        0.0330
     28 H           4.8967    2.0761    0.0000 H       1  UNL1        0.0739
     29 H           6.7034    0.7634    0.0000 H       1  UNL1        0.0384
     30 H           2.4015   -0.3729    0.0000 H       1  UNL1        0.0330
     31 H           2.7959   -1.0165    0.0000 H       1  UNL1        0.0330
     32 H           7.0725    1.0488    0.0000 H       1  UNL1        0.0416
     33 H           6.6659   -0.0614    0.0000 H       1  UNL1        0.0784
     34 H           4.1707    2.2886    0.0000 H       1  UNL1        0.0258
     35 H           3.6190    2.9701    0.0000 H       1  UNL1        0.0258
     36 H           2.9375    2.4184    0.0000 H       1  UNL1        0.0258
     37 H           3.2607   -1.2777    0.0000 H       1  UNL1        0.0788
     38 H           5.9305   -1.5417    0.0000 H       1  UNL1        0.0615
     39 H           7.7350    0.7625    0.0000 H       1  UNL1        0.0238
     40 H           8.5162    1.1606    0.0000 H       1  UNL1        0.0238
     41 H           8.1182    1.9418    0.0000 H       1  UNL1        0.0238
     42 H           2.0879   -3.3565    0.0000 H       1  UNL1        0.0342
     43 H           2.6397   -4.0379    0.0000 H       1  UNL1        0.0342
     44 H           3.3211   -3.4861    0.0000 H       1  UNL1        0.0342
@<TRIPOS>BOND
     1     1     8    1
     2     1     9    1
     3     2    11    1
     4     2    19    1
     5     3    16    1
     6     3    22    1
     7     4    17    1
     8     4    23    1
     9     5    19    2
    10     6    22    2
    11     7    23    2
    12     8     9    1
    13     8    10    1
    14     8    15    1
    15     9    13    1
    16     9    25    1
    17    10    11    1
    18    10    26    1
    19    10    27    1
    20    11    12    1
    21    11    28    1
    22    12    14    1
    23    12    16    1
    24    12    29    1
    25    13    17    1
    26    13    30    1
    27    13    31    1
    28    14    19    1
    29    14    21    1
    30    14    32    1
    31    15    34    1
    32    15    35    1
    33    15    36    1
    34    16    20    1
    35    16    33    1
    36    17    18    1
    37    17    37    1
    38    18    20    2
    39    18    22    1
    40    20    38    1
    41    21    39    1
    42    21    40    1
    43    21    41    1
    44    23    24    1
    45    24    42    1
    46    24    43    1
    47    24    44    1
