@<TRIPOS>MOLECULE
IMPHY015768
 24 23 0 0 0
SMALL
GASTEIGER

@<TRIPOS>ATOM
      1 O           6.3301    0.7500    0.0000 O.3     1  UNL1       -0.4311
      2 O           5.4641   -0.7500    0.0000 O.2     1  UNL1       -0.2504
      3 C           3.7320    0.2500    0.0000 C.3     1  UNL1       -0.0432
      4 C           2.8660    0.7500    0.0000 C.3     1  UNL1       -0.0554
      5 C           4.5981    0.7500    0.0000 C.3     1  UNL1        0.0453
      6 C           2.0000    0.2500    0.0000 C.3     1  UNL1       -0.0653
      7 C           5.4641    0.2500    0.0000 C.2     1  UNL1        0.3120
      8 C           7.1962    0.2500    0.0000 C.2     1  UNL1        0.0987
      9 C           8.0622    0.7500    0.0000 C.3     1  UNL1       -0.0068
     10 C           7.1962   -0.7500    0.0000 C.2     1  UNL1       -0.0606
     11 H           3.3335   -0.2249    0.0000 H       1  UNL1        0.0270
     12 H           4.1306   -0.2249    0.0000 H       1  UNL1        0.0270
     13 H           3.2646    1.2250    0.0000 H       1  UNL1        0.0263
     14 H           2.4675    1.2250    0.0000 H       1  UNL1        0.0263
     15 H           4.9966    1.2250    0.0000 H       1  UNL1        0.0378
     16 H           4.1996    1.2250    0.0000 H       1  UNL1        0.0378
     17 H           1.6900    0.7869    0.0000 H       1  UNL1        0.0230
     18 H           1.4631   -0.0600    0.0000 H       1  UNL1        0.0230
     19 H           2.3100   -0.2869    0.0000 H       1  UNL1        0.0230
     20 H           8.3722    0.2131    0.0000 H       1  UNL1        0.0308
     21 H           8.5991    1.0600    0.0000 H       1  UNL1        0.0308
     22 H           7.7522    1.2869    0.0000 H       1  UNL1        0.0308
     23 H           6.6592   -1.0600    0.0000 H       1  UNL1        0.0568
     24 H           7.7331   -1.0600    0.0000 H       1  UNL1        0.0568
@<TRIPOS>BOND
     1     1     7    1
     2     1     8    1
     3     2     7    2
     4     3     4    1
     5     3     5    1
     6     3    11    1
     7     3    12    1
     8     4     6    1
     9     4    13    1
    10     4    14    1
    11     5     7    1
    12     5    15    1
    13     5    16    1
    14     6    17    1
    15     6    18    1
    16     6    19    1
    17     8     9    1
    18     8    10    2
    19     9    20    1
    20     9    21    1
    21     9    22    1
    22    10    23    1
    23    10    24    1
