@<TRIPOS>MOLECULE
IMPHY016863
 46 45 0 0 0
SMALL
GASTEIGER

@<TRIPOS>ATOM
      1 O          12.3923    0.7500    0.0000 O.3     1  UNL1       -0.3950
      2 C           6.3301    0.2500    0.0000 C.3     1  UNL1       -0.0436
      3 C           7.1962    0.7500    0.0000 C.3     1  UNL1       -0.0504
      4 C           8.0622    0.2500    0.0000 C.3     1  UNL1       -0.0526
      5 C           8.9282    0.7500    0.0000 C.3     1  UNL1       -0.0504
      6 C           9.7942    0.2500    0.0000 C.3     1  UNL1       -0.0418
      7 C           5.4641    0.7500    0.0000 C.3     1  UNL1       -0.0470
      8 C          10.6603    0.7500    0.0000 C.3     1  UNL1       -0.0271
      9 C           6.3301   -0.7500    0.0000 C.3     1  UNL1       -0.0624
     10 C           9.7942   -0.7500    0.0000 C.3     1  UNL1       -0.0623
     11 C           4.5981    0.2500    0.0000 C.3     1  UNL1       -0.0343
     12 C          11.5263    0.2500    0.0000 C.3     1  UNL1        0.0444
     13 C           3.7320    0.7500    0.0000 C.2     1  UNL1       -0.0853
     14 C           2.8660    0.2500    0.0000 C.2     1  UNL1       -0.0796
     15 C           2.0000    0.7500    0.0000 C.3     1  UNL1       -0.0440
     16 C           2.8660   -0.7500    0.0000 C.3     1  UNL1       -0.0440
     17 H           6.8671   -0.0600    0.0000 H       1  UNL1        0.0298
     18 H           7.5947    1.2250    0.0000 H       1  UNL1        0.0268
     19 H           6.7976    1.2250    0.0000 H       1  UNL1        0.0268
     20 H           7.6636   -0.2249    0.0000 H       1  UNL1        0.0265
     21 H           8.4607   -0.2249    0.0000 H       1  UNL1        0.0265
     22 H           9.3267    1.2250    0.0000 H       1  UNL1        0.0268
     23 H           8.5297    1.2250    0.0000 H       1  UNL1        0.0268
     24 H           9.2573   -0.0600    0.0000 H       1  UNL1        0.0299
     25 H           5.8626    1.2250    0.0000 H       1  UNL1        0.0271
     26 H           5.0656    1.2250    0.0000 H       1  UNL1        0.0271
     27 H          11.0588    1.2250    0.0000 H       1  UNL1        0.0290
     28 H          10.2617    1.2250    0.0000 H       1  UNL1        0.0290
     29 H           5.7101   -0.7500    0.0000 H       1  UNL1        0.0232
     30 H           6.3301   -1.3700    0.0000 H       1  UNL1        0.0232
     31 H           6.9501   -0.7500    0.0000 H       1  UNL1        0.0232
     32 H           9.1742   -0.7500    0.0000 H       1  UNL1        0.0232
     33 H           9.7942   -1.3700    0.0000 H       1  UNL1        0.0232
     34 H          10.4142   -0.7500    0.0000 H       1  UNL1        0.0232
     35 H           4.1996   -0.2249    0.0000 H       1  UNL1        0.0307
     36 H           4.9966   -0.2249    0.0000 H       1  UNL1        0.0307
     37 H          11.1278   -0.2249    0.0000 H       1  UNL1        0.0557
     38 H          11.9248   -0.2249    0.0000 H       1  UNL1        0.0557
     39 H           3.7320    1.3700    0.0000 H       1  UNL1        0.0571
     40 H          12.9292    0.4400    0.0000 H       1  UNL1        0.2094
     41 H           2.3100    1.2869    0.0000 H       1  UNL1        0.0274
     42 H           1.4631    1.0600    0.0000 H       1  UNL1        0.0274
     43 H           1.6900    0.2131    0.0000 H       1  UNL1        0.0274
     44 H           2.2460   -0.7500    0.0000 H       1  UNL1        0.0274
     45 H           2.8660   -1.3700    0.0000 H       1  UNL1        0.0274
     46 H           3.4860   -0.7500    0.0000 H       1  UNL1        0.0274
@<TRIPOS>BOND
     1     1    12    1
     2     1    40    1
     3     2     3    1
     4     2     7    1
     5     2     9    1
     6     2    17    1
     7     3     4    1
     8     3    18    1
     9     3    19    1
    10     4     5    1
    11     4    20    1
    12     4    21    1
    13     5     6    1
    14     5    22    1
    15     5    23    1
    16     6     8    1
    17     6    10    1
    18     6    24    1
    19     7    11    1
    20     7    25    1
    21     7    26    1
    22     8    12    1
    23     8    27    1
    24     8    28    1
    25     9    29    1
    26     9    30    1
    27     9    31    1
    28    10    32    1
    29    10    33    1
    30    10    34    1
    31    11    13    1
    32    11    35    1
    33    11    36    1
    34    12    37    1
    35    12    38    1
    36    13    14    2
    37    13    39    1
    38    14    15    1
    39    14    16    1
    40    15    41    1
    41    15    42    1
    42    15    43    1
    43    16    44    1
    44    16    45    1
    45    16    46    1
