@<TRIPOS>MOLECULE
IMPHY008164
 42 45 0 0 0
SMALL
GASTEIGER

@<TRIPOS>ATOM
      1 O           4.6660    2.8282    0.0000 O.2     1  UNL1       -0.2669
      2 N           5.5321    1.3282    0.0000 N.ar    1  UNL1       -0.2957
      3 N           4.6660   -0.1719    0.0000 N.ar    1  UNL1       -0.2329
      4 N           8.4353   -0.3890    0.0000 N.pl3   1  UNL1       -0.3358
      5 C           6.4783    0.0234    0.0000 C.3     1  UNL1        0.0457
      6 C           7.0619    0.8281    0.0000 C.3     1  UNL1       -0.0210
      7 C           6.4783    1.6329    0.0000 C.3     1  UNL1        0.0287
      8 C           5.5321    0.3281    0.0000 C.ar    1  UNL1        0.1205
      9 C           6.7889   -0.9271    0.0000 C.ar    1  UNL1       -0.0160
     10 C           4.6660    1.8282    0.0000 C.ar    1  UNL1        0.2618
     11 C           7.7674   -1.1333    0.0000 C.ar    1  UNL1        0.0331
     12 C           3.8000    1.3282    0.0000 C.ar    1  UNL1        0.0649
     13 C           3.8000    0.3281    0.0000 C.ar    1  UNL1        0.0782
     14 C           6.1211   -1.6714    0.0000 C.ar    1  UNL1       -0.0561
     15 C           8.0781   -2.0838    0.0000 C.ar    1  UNL1       -0.0404
     16 C           6.4318   -2.6219    0.0000 C.ar    1  UNL1       -0.0614
     17 C           2.9061    1.8628    0.0000 C.ar    1  UNL1       -0.0474
     18 C           2.9061   -0.2065    0.0000 C.ar    1  UNL1       -0.0355
     19 C           7.4103   -2.8282    0.0000 C.ar    1  UNL1       -0.0600
     20 C           9.4138   -0.5952    0.0000 C.3     1  UNL1        0.0004
     21 C           8.1246    0.5615    0.0000 C.3     1  UNL1        0.0004
     22 C           2.0000    1.3490    0.0000 C.ar    1  UNL1       -0.0609
     23 C           2.0000    0.3073    0.0000 C.ar    1  UNL1       -0.0597
     24 H           7.0908   -0.0728    0.0000 H       1  UNL1        0.0429
     25 H           7.5228    0.4134    0.0000 H       1  UNL1        0.0292
     26 H           7.5228    1.2429    0.0000 H       1  UNL1        0.0292
     27 H           7.0157    1.9421    0.0000 H       1  UNL1        0.0493
     28 H           6.2272    2.1998    0.0000 H       1  UNL1        0.0493
     29 H           5.5144   -1.5436    0.0000 H       1  UNL1        0.0621
     30 H           8.6848   -2.2117    0.0000 H       1  UNL1        0.0636
     31 H           6.0177   -3.0834    0.0000 H       1  UNL1        0.0618
     32 H           2.9132    2.4828    0.0000 H       1  UNL1        0.0626
     33 H           2.9132   -0.8265    0.0000 H       1  UNL1        0.0639
     34 H           7.6029   -3.4175    0.0000 H       1  UNL1        0.0618
     35 H           8.7140    0.7541    0.0000 H       1  UNL1        0.0428
     36 H           7.9320    1.1508    0.0000 H       1  UNL1        0.0428
     37 H           7.5353    0.3689    0.0000 H       1  UNL1        0.0428
     38 H           9.2859   -1.2019    0.0000 H       1  UNL1        0.0428
     39 H          10.0205   -0.7231    0.0000 H       1  UNL1        0.0428
     40 H           9.5416    0.0114    0.0000 H       1  UNL1        0.0428
     41 H           1.4643    1.6610    0.0000 H       1  UNL1        0.0618
     42 H           1.4643   -0.0047    0.0000 H       1  UNL1        0.0618
@<TRIPOS>BOND
     1     1    10    2
     2     2     7    1
     3     2     8   ar
     4     2    10   ar
     5     3     8   ar
     6     3    13   ar
     7     4    11    1
     8     4    20    1
     9     4    21    1
    10     5     6    1
    11     5     8    1
    12     5     9    1
    13     5    24    1
    14     6     7    1
    15     6    25    1
    16     6    26    1
    17     7    27    1
    18     7    28    1
    19     9    11   ar
    20     9    14   ar
    21    10    12   ar
    22    11    15   ar
    23    12    13   ar
    24    12    17   ar
    25    13    18   ar
    26    14    16   ar
    27    14    29    1
    28    15    19   ar
    29    15    30    1
    30    16    19   ar
    31    16    31    1
    32    17    22   ar
    33    17    32    1
    34    18    23   ar
    35    18    33    1
    36    19    34    1
    37    20    38    1
    38    20    39    1
    39    20    40    1
    40    21    35    1
    41    21    36    1
    42    21    37    1
    43    22    23   ar
    44    22    41    1
    45    23    42    1
