@<TRIPOS>MOLECULE
IMPHY011594
 71 75 0 0 0
SMALL
GASTEIGER

@<TRIPOS>ATOM
      1 O           6.8671   -1.7787    0.0000 O.3     1  UNL1       -0.3313
      2 O           4.2690   -4.2787    0.0000 O.3     1  UNL1       -0.3431
      3 O           6.0010   -4.2787    0.0000 O.3     1  UNL1       -0.3461
      4 O           7.7331   -4.2787    0.0000 O.3     1  UNL1       -0.3865
      5 O           9.4651   -3.2787    0.0000 O.3     1  UNL1       -0.3864
      6 O           7.7331   -0.2787    0.0000 O.3     1  UNL1       -0.4606
      7 O           9.4651   -1.2787    0.0000 O.3     1  UNL1       -0.3829
      8 O           6.0010   -6.2787    0.0000 O.3     1  UNL1       -0.3841
      9 O           4.2690   -7.2787    0.0000 O.3     1  UNL1       -0.3864
     10 O           2.5369   -6.2787    0.0000 O.3     1  UNL1       -0.3866
     11 O           5.9589    2.7733    0.0000 O.2     1  UNL1       -0.4544
     12 O           4.1934   -0.2514    0.0000 O.3     1  UNL1       -0.5058
     13 O           3.3550    1.2833    0.0000 O.2     1  UNL1       -0.2869
     14 O           5.1102    7.2766    0.0000 O.3     1  UNL1       -0.5068
     15 C           6.8671   -2.7787    0.0000 C.3     1  UNL1        0.1144
     16 C           7.7331   -3.2787    0.0000 C.3     1  UNL1        0.1120
     17 C           8.5991   -2.7787    0.0000 C.3     1  UNL1        0.1152
     18 C           8.5991   -1.7787    0.0000 C.3     1  UNL1        0.1454
     19 C           5.1350   -5.7787    0.0000 C.3     1  UNL1        0.1341
     20 C           5.1350   -4.7787    0.0000 C.3     1  UNL1        0.1879
     21 C           4.2690   -6.2787    0.0000 C.3     1  UNL1        0.1140
     22 C           3.4030   -5.7787    0.0000 C.3     1  UNL1        0.1095
     23 C           7.7331   -1.2787    0.0000 C.3     1  UNL1        0.2308
     24 C           3.4030   -4.7787    0.0000 C.3     1  UNL1        0.0873
     25 C           6.0010   -3.2787    0.0000 C.3     1  UNL1        0.0796
     26 C           2.5369   -4.2787    0.0000 C.3     1  UNL1       -0.0361
     27 C           6.8671    0.2213    0.0000 C.ar    1  UNL1        0.1310
     28 C           6.8630    1.2630    0.0000 C.ar    1  UNL1        0.0235
     29 C           5.9630   -0.2960    0.0000 C.ar    1  UNL1        0.0226
     30 C           5.9550    1.7733    0.0000 C.ar    1  UNL1        0.1462
     31 C           5.0670    0.2352    0.0000 C.ar    1  UNL1        0.1347
     32 C           5.0871    1.2766    0.0000 C.ar    1  UNL1        0.1055
     33 C           4.2230    1.7800    0.0000 C.ar    1  UNL1        0.1966
     34 C           5.0948    3.2766    0.0000 C.ar    1  UNL1        0.1392
     35 C           4.2268    2.7800    0.0000 C.ar    1  UNL1        0.0288
     36 C           5.0986    4.2766    0.0000 C.ar    1  UNL1        0.0176
     37 C           5.9666    4.7733    0.0000 C.ar    1  UNL1       -0.0476
     38 C           4.2345    4.7800    0.0000 C.ar    1  UNL1       -0.0476
     39 C           5.9704    5.7733    0.0000 C.ar    1  UNL1       -0.0195
     40 C           4.2384    5.7800    0.0000 C.ar    1  UNL1       -0.0195
     41 C           5.1063    6.2766    0.0000 C.ar    1  UNL1        0.1169
     42 H           6.3301   -2.4687    0.0000 H       1  UNL1        0.0647
     43 H           8.2700   -3.5887    0.0000 H       1  UNL1        0.0647
     44 H           9.1360   -2.4687    0.0000 H       1  UNL1        0.0648
     45 H           8.5991   -1.1587    0.0000 H       1  UNL1        0.0683
     46 H           5.1350   -6.3987    0.0000 H       1  UNL1        0.0671
     47 H           5.1350   -4.1587    0.0000 H       1  UNL1        0.0937
     48 H           3.7320   -6.5887    0.0000 H       1  UNL1        0.0648
     49 H           2.8660   -5.4687    0.0000 H       1  UNL1        0.0646
     50 H           7.1962   -0.9687    0.0000 H       1  UNL1        0.1084
     51 H           3.4030   -4.1587    0.0000 H       1  UNL1        0.0621
     52 H           5.7890   -2.6961    0.0000 H       1  UNL1        0.0587
     53 H           5.3905   -3.3863    0.0000 H       1  UNL1        0.0587
     54 H           2.8469   -3.7417    0.0000 H       1  UNL1        0.0255
     55 H           2.0000   -3.9687    0.0000 H       1  UNL1        0.0255
     56 H           2.2269   -4.8156    0.0000 H       1  UNL1        0.0255
     57 H           8.2700   -4.5887    0.0000 H       1  UNL1        0.2100
     58 H          10.0021   -2.9687    0.0000 H       1  UNL1        0.2100
     59 H           9.4651   -0.6587    0.0000 H       1  UNL1        0.2102
     60 H           6.5380   -5.9687    0.0000 H       1  UNL1        0.2101
     61 H           3.7320   -7.5887    0.0000 H       1  UNL1        0.2100
     62 H           2.0000   -5.9687    0.0000 H       1  UNL1        0.2100
     63 H           7.3976    1.5771    0.0000 H       1  UNL1        0.0691
     64 H           5.9582   -0.9160    0.0000 H       1  UNL1        0.0691
     65 H           3.6911    3.0920    0.0000 H       1  UNL1        0.0693
     66 H           4.1838   -0.8713    0.0000 H       1  UNL1        0.2922
     67 H           6.5023    4.4612    0.0000 H       1  UNL1        0.0626
     68 H           3.6964    4.4720    0.0000 H       1  UNL1        0.0626
     69 H           6.5085    6.0812    0.0000 H       1  UNL1        0.0654
     70 H           3.7026    6.0920    0.0000 H       1  UNL1        0.0654
     71 H           4.5744    7.5887    0.0000 H       1  UNL1        0.2921
@<TRIPOS>BOND
     1     1    15    1
     2     1    23    1
     3     2    20    1
     4     2    24    1
     5    20     3    1
     6     3    25    1
     7    16     4    1
     8     4    57    1
     9    17     5    1
    10     5    58    1
    11    23     6    1
    12     6    27    1
    13    18     7    1
    14     7    59    1
    15    19     8    1
    16     8    60    1
    17    21     9    1
    18     9    61    1
    19    22    10    1
    20    10    62    1
    21    11    30   ar
    22    11    34   ar
    23    12    31    1
    24    12    66    1
    25    13    33    2
    26    14    41    1
    27    14    71    1
    28    15    16    1
    29    15    25    1
    30    15    42    1
    31    16    17    1
    32    16    43    1
    33    17    18    1
    34    17    44    1
    35    18    23    1
    36    18    45    1
    37    19    20    1
    38    19    21    1
    39    19    46    1
    40    20    47    1
    41    21    22    1
    42    21    48    1
    43    22    24    1
    44    22    49    1
    45    23    50    1
    46    24    26    1
    47    24    51    1
    48    25    52    1
    49    25    53    1
    50    26    54    1
    51    26    55    1
    52    26    56    1
    53    27    28   ar
    54    27    29   ar
    55    28    30   ar
    56    28    63    1
    57    29    31   ar
    58    29    64    1
    59    30    32   ar
    60    31    32   ar
    61    32    33   ar
    62    33    35   ar
    63    34    35   ar
    64    34    36    1
    65    35    65    1
    66    36    37   ar
    67    36    38   ar
    68    37    39   ar
    69    37    67    1
    70    38    40   ar
    71    38    68    1
    72    39    41   ar
    73    39    69    1
    74    40    41   ar
    75    40    70    1
