@<TRIPOS>MOLECULE
IMPHY012535
 69 76 0 0 0
SMALL
GASTEIGER

@<TRIPOS>ATOM
      1 O           2.8602   -1.2073    0.0000 O.3     1  UNL1       -0.4646
      2 O           3.7435    0.2826    0.0000 O.2     1  UNL1       -0.2453
      3 N           7.2342    0.2795    0.0000 N.3     1  UNL1       -0.2933
      4 N           5.4862   -2.7898    0.0000 N.pl3   1  UNL1       -0.3237
      5 N           8.3576   -2.4362    0.0000 N.ar    1  UNL1       -0.3560
      6 N           5.5791    2.5099    0.0000 N.ar    1  UNL1       -0.3564
      7 C           6.3682   -1.2205    0.0000 C.3     1  UNL1        0.0056
      8 C           6.3842   -2.2620    0.0000 C.3     1  UNL1        0.0763
      9 C           5.5021   -0.7205    0.0000 C.3     1  UNL1        0.0002
     10 C           7.2342   -0.7205    0.0000 C.3     1  UNL1        0.0052
     11 C           6.3682    0.7795    0.0000 C.3     1  UNL1        0.0515
     12 C           5.5021    0.2795    0.0000 C.3     1  UNL1       -0.0244
     13 C           7.3361   -2.7826    0.0000 C.ar    1  UNL1        0.0441
     14 C           4.5921   -1.2273    0.0000 C.2     1  UNL1        0.0537
     15 C           7.2464   -1.7553    0.0000 C.3     1  UNL1       -0.0377
     16 C           5.4778   -3.8747    0.0000 C.3     1  UNL1        0.0167
     17 C           8.1442    0.7864    0.0000 C.3     1  UNL1        0.0036
     18 C           6.3521    1.8210    0.0000 C.ar    1  UNL1        0.0376
     19 C           4.5841   -2.2689    0.0000 C.2     1  UNL1        0.0031
     20 C           7.3529   -3.8675    0.0000 C.ar    1  UNL1       -0.0155
     21 C           6.4174   -4.4172    0.0000 C.3     1  UNL1       -0.0096
     22 C           8.1522    1.8280    0.0000 C.3     1  UNL1       -0.0125
     23 C           7.2501    2.3488    0.0000 C.ar    1  UNL1       -0.0164
     24 C           8.3845   -4.1822    0.0000 C.ar    1  UNL1        0.0032
     25 C           9.0042   -3.2995    0.0000 C.ar    1  UNL1        0.0470
     26 C           3.7319   -0.7174    0.0000 C.2     1  UNL1        0.3364
     27 C           7.0244    3.3593    0.0000 C.ar    1  UNL1        0.0032
     28 C           5.9937    3.4587    0.0000 C.ar    1  UNL1        0.0470
     29 C           8.8423   -5.2082    0.0000 C.ar    1  UNL1       -0.0523
     30 C          10.1246   -3.3814    0.0000 C.ar    1  UNL1       -0.0378
     31 C           7.6643    4.2276    0.0000 C.ar    1  UNL1       -0.0523
     32 C           5.5315    4.4333    0.0000 C.ar    1  UNL1       -0.0378
     33 C           9.9606   -5.3160    0.0000 C.ar    1  UNL1       -0.0611
     34 C          10.6061   -4.3965    0.0000 C.ar    1  UNL1       -0.0598
     35 C           7.2248    5.2125    0.0000 C.ar    1  UNL1       -0.0611
     36 C           6.1512    5.3160    0.0000 C.ar    1  UNL1       -0.0598
     37 C           2.0000   -0.6973    0.0000 C.3     1  UNL1        0.0820
     38 H           6.9075   -1.5263    0.0000 H       1  UNL1        0.0343
     39 H           4.9676   -0.4064    0.0000 H       1  UNL1        0.0356
     40 H           7.4462   -1.3031    0.0000 H       1  UNL1        0.0430
     41 H           7.8448   -0.6128    0.0000 H       1  UNL1        0.0430
     42 H           5.8288    1.0854    0.0000 H       1  UNL1        0.0527
     43 H           5.2901    0.8621    0.0000 H       1  UNL1        0.0290
     44 H           4.8915    0.1719    0.0000 H       1  UNL1        0.0290
     45 H           7.5605   -2.2899    0.0000 H       1  UNL1        0.0254
     46 H           7.7809   -1.4412    0.0000 H       1  UNL1        0.0254
     47 H           6.9322   -1.2208    0.0000 H       1  UNL1        0.0254
     48 H           4.8678   -3.7639    0.0000 H       1  UNL1        0.0467
     49 H           5.2643   -4.4568    0.0000 H       1  UNL1        0.0467
     50 H           8.3487    0.2011    0.0000 H       1  UNL1        0.0430
     51 H           8.7558    0.8877    0.0000 H       1  UNL1        0.0430
     52 H           4.0460   -2.5769    0.0000 H       1  UNL1        0.0785
     53 H           6.0201   -4.8932    0.0000 H       1  UNL1        0.0329
     54 H           6.8184   -4.8901    0.0000 H       1  UNL1        0.0329
     55 H           8.7622    1.7172    0.0000 H       1  UNL1        0.0326
     56 H           8.3658    2.4100    0.0000 H       1  UNL1        0.0326
     57 H           8.5411   -1.8440    0.0000 H       1  UNL1        0.1657
     58 H           4.9734    2.3774    0.0000 H       1  UNL1        0.1656
     59 H           8.4803   -5.7115    0.0000 H       1  UNL1        0.0624
     60 H          10.4750   -2.8699    0.0000 H       1  UNL1        0.0638
     61 H           8.2808    4.1609    0.0000 H       1  UNL1        0.0624
     62 H           4.9137    4.4856    0.0000 H       1  UNL1        0.0638
     63 H          10.2198   -5.8793    0.0000 H       1  UNL1        0.0618
     64 H          11.2239   -4.4489    0.0000 H       1  UNL1        0.0618
     65 H           7.5868    5.7158    0.0000 H       1  UNL1        0.0618
     66 H           5.8920    5.8793    0.0000 H       1  UNL1        0.0618
     67 H           2.3162   -0.1640    0.0000 H       1  UNL1        0.0661
     68 H           1.4667   -0.3811    0.0000 H       1  UNL1        0.0661
     69 H           1.6838   -1.2306    0.0000 H       1  UNL1        0.0661
@<TRIPOS>BOND
     1     1    26    1
     2     1    37    1
     3     2    26    2
     4     3    10    1
     5     3    11    1
     6     3    17    1
     7     4     8    1
     8     4    16    1
     9     4    19    1
    10     5    13   ar
    11     5    25   ar
    12     5    57    1
    13     6    18   ar
    14     6    28   ar
    15     6    58    1
    16     7     8    1
    17     7     9    1
    18     7    10    1
    19     7    38    1
    20     8    13    1
    21     8    15    1
    22     9    12    1
    23     9    14    1
    24     9    39    1
    25    10    40    1
    26    10    41    1
    27    11    12    1
    28    11    18    1
    29    11    42    1
    30    12    43    1
    31    12    44    1
    32    13    20   ar
    33    14    19    2
    34    14    26    1
    35    15    45    1
    36    15    46    1
    37    15    47    1
    38    16    21    1
    39    16    48    1
    40    16    49    1
    41    17    22    1
    42    17    50    1
    43    17    51    1
    44    18    23   ar
    45    19    52    1
    46    20    21    1
    47    20    24   ar
    48    21    53    1
    49    21    54    1
    50    22    23    1
    51    22    55    1
    52    22    56    1
    53    23    27   ar
    54    24    25   ar
    55    24    29   ar
    56    25    30   ar
    57    27    28   ar
    58    27    31   ar
    59    28    32   ar
    60    29    33   ar
    61    29    59    1
    62    30    34   ar
    63    30    60    1
    64    31    35   ar
    65    31    61    1
    66    32    36   ar
    67    32    62    1
    68    33    34   ar
    69    33    63    1
    70    34    64    1
    71    35    36   ar
    72    35    65    1
    73    36    66    1
    74    37    67    1
    75    37    68    1
    76    37    69    1
