@<TRIPOS>MOLECULE
IMPHY013372
 98 103 0 0 0
SMALL
GASTEIGER

@<TRIPOS>ATOM
      1 O          10.3312   -3.8696    0.0000 O.3     1  UNL1       -0.3366
      2 O           8.5991   -1.8696    0.0000 O.3     1  UNL1       -0.3313
      3 O          11.1972   -2.3696    0.0000 O.3     1  UNL1       -0.3405
      4 O           6.0010   -2.3696    0.0000 O.3     1  UNL1       -0.3461
      5 O           8.5991   -4.8696    0.0000 O.3     1  UNL1       -0.3863
      6 O          10.3312   -1.8696    0.0000 O.3     1  UNL1       -0.4606
      7 O           6.8671   -3.8696    0.0000 O.3     1  UNL1       -0.3865
      8 O           4.2690   -2.3696    0.0000 O.3     1  UNL1       -0.3431
      9 O          12.0632   -4.8696    0.0000 O.3     1  UNL1       -0.3841
     10 O          13.7953   -3.8696    0.0000 O.3     1  UNL1       -0.3864
     11 O          13.7953   -1.8696    0.0000 O.3     1  UNL1       -0.3865
     12 O           6.0010   -0.3696    0.0000 O.3     1  UNL1       -0.3841
     13 O           4.2690    0.6304    0.0000 O.3     1  UNL1       -0.3864
     14 O           2.5369   -0.3696    0.0000 O.3     1  UNL1       -0.3866
     15 O          12.9292   -0.3696    0.0000 O.3     1  UNL1       -0.3924
     16 O          12.0871    1.1930    0.0000 O.3     1  UNL1       -0.4828
     17 O           8.5849    1.2096    0.0000 O.3     1  UNL1       -0.5058
     18 O           9.4948    2.7030    0.0000 O.2     1  UNL1       -0.2917
     19 O          15.5551    2.1796    0.0000 O.3     1  UNL1       -0.5033
     20 O          15.5628    4.1796    0.0000 O.3     1  UNL1       -0.4915
     21 C           9.4651   -3.3696    0.0000 C.3     1  UNL1        0.1519
     22 C           8.5991   -3.8696    0.0000 C.3     1  UNL1        0.1155
     23 C           7.7331   -3.3696    0.0000 C.3     1  UNL1        0.1120
     24 C           7.7331   -2.3696    0.0000 C.3     1  UNL1        0.1144
     25 C           9.4651   -2.3696    0.0000 C.3     1  UNL1        0.2312
     26 C          11.1972   -3.3696    0.0000 C.3     1  UNL1        0.1886
     27 C          12.0632   -3.8696    0.0000 C.3     1  UNL1        0.1341
     28 C          12.9292   -3.3696    0.0000 C.3     1  UNL1        0.1141
     29 C          12.9292   -2.3696    0.0000 C.3     1  UNL1        0.1119
     30 C          12.0632   -1.8696    0.0000 C.3     1  UNL1        0.1130
     31 C           6.8671   -1.8696    0.0000 C.3     1  UNL1        0.0796
     32 C           5.1350   -1.8696    0.0000 C.3     1  UNL1        0.1879
     33 C           5.1350   -0.8696    0.0000 C.3     1  UNL1        0.1341
     34 C           4.2690   -0.3696    0.0000 C.3     1  UNL1        0.1140
     35 C           3.4030   -0.8696    0.0000 C.3     1  UNL1        0.1095
     36 C           3.4030   -1.8696    0.0000 C.3     1  UNL1        0.0873
     37 C          12.0632   -0.8696    0.0000 C.3     1  UNL1        0.0730
     38 C           2.5369   -2.3696    0.0000 C.3     1  UNL1       -0.0361
     39 C          10.3312   -0.8696    0.0000 C.ar    1  UNL1        0.1310
     40 C          11.2312   -0.3453    0.0000 C.ar    1  UNL1        0.0229
     41 C           9.4311   -0.3453    0.0000 C.ar    1  UNL1        0.0226
     42 C          11.2192    0.6963    0.0000 C.ar    1  UNL1        0.1389
     43 C          10.3551    1.1996    0.0000 C.ar    1  UNL1        0.1007
     44 C           9.4431    0.6963    0.0000 C.ar    1  UNL1        0.1343
     45 C          12.0910    2.1929    0.0000 C.3     1  UNL1        0.1323
     46 C          11.2269    2.6963    0.0000 C.3     1  UNL1        0.0520
     47 C          10.3589    2.1996    0.0000 C.2     1  UNL1        0.1740
     48 C          12.9589    2.6896    0.0000 C.ar    1  UNL1       -0.0033
     49 C          13.8230    2.1863    0.0000 C.ar    1  UNL1       -0.0098
     50 C          12.9628    3.6896    0.0000 C.ar    1  UNL1       -0.0514
     51 C          14.6910    2.6829    0.0000 C.ar    1  UNL1        0.1588
     52 C          13.8307    4.1862    0.0000 C.ar    1  UNL1       -0.0159
     53 C          14.6948    3.6829    0.0000 C.ar    1  UNL1        0.1613
     54 C          15.5666    5.1796    0.0000 C.3     1  UNL1        0.0790
     55 H          10.0021   -3.0596    0.0000 H       1  UNL1        0.0687
     56 H           9.1360   -4.1796    0.0000 H       1  UNL1        0.0648
     57 H           7.7331   -3.9896    0.0000 H       1  UNL1        0.0647
     58 H           7.7331   -1.7496    0.0000 H       1  UNL1        0.0647
     59 H           9.4651   -1.7496    0.0000 H       1  UNL1        0.1084
     60 H          11.1972   -3.9896    0.0000 H       1  UNL1        0.0938
     61 H          12.6002   -4.1796    0.0000 H       1  UNL1        0.0671
     62 H          13.4662   -3.0596    0.0000 H       1  UNL1        0.0648
     63 H          13.4662   -2.6796    0.0000 H       1  UNL1        0.0647
     64 H          11.5263   -1.5596    0.0000 H       1  UNL1        0.0647
     65 H           7.2656   -1.3946    0.0000 H       1  UNL1        0.0587
     66 H           6.4685   -1.3946    0.0000 H       1  UNL1        0.0587
     67 H           5.6720   -1.5596    0.0000 H       1  UNL1        0.0937
     68 H           5.1350   -0.2496    0.0000 H       1  UNL1        0.0671
     69 H           3.7320   -0.0596    0.0000 H       1  UNL1        0.0648
     70 H           3.4030   -0.2496    0.0000 H       1  UNL1        0.0646
     71 H           3.4030   -2.4896    0.0000 H       1  UNL1        0.0621
     72 H           8.0622   -5.1796    0.0000 H       1  UNL1        0.2100
     73 H          11.8512   -0.2870    0.0000 H       1  UNL1        0.0584
     74 H          11.4526   -0.9772    0.0000 H       1  UNL1        0.0584
     75 H           6.8671   -4.4896    0.0000 H       1  UNL1        0.2100
     76 H          12.6002   -5.1796    0.0000 H       1  UNL1        0.2101
     77 H          13.7953   -4.4896    0.0000 H       1  UNL1        0.2100
     78 H          14.3322   -2.1796    0.0000 H       1  UNL1        0.2100
     79 H           2.2269   -1.8326    0.0000 H       1  UNL1        0.0255
     80 H           2.0000   -2.6796    0.0000 H       1  UNL1        0.0255
     81 H           2.8469   -2.9065    0.0000 H       1  UNL1        0.0255
     82 H           6.0010    0.2504    0.0000 H       1  UNL1        0.2101
     83 H           3.7320    0.9404    0.0000 H       1  UNL1        0.2100
     84 H           2.0000   -0.6796    0.0000 H       1  UNL1        0.2100
     85 H          13.4662   -0.6796    0.0000 H       1  UNL1        0.2095
     86 H          11.7705   -0.6511    0.0000 H       1  UNL1        0.0691
     87 H           8.8918   -0.6511    0.0000 H       1  UNL1        0.0691
     88 H          12.6267    1.8809    0.0000 H       1  UNL1        0.0789
     89 H          11.6272    3.1697    0.0000 H       1  UNL1        0.0385
     90 H          10.8302    3.1728    0.0000 H       1  UNL1        0.0385
     91 H           8.0433    0.9079    0.0000 H       1  UNL1        0.2922
     92 H          13.8206    1.5663    0.0000 H       1  UNL1        0.0659
     93 H          12.4270    4.0017    0.0000 H       1  UNL1        0.0623
     94 H          13.8331    4.8062    0.0000 H       1  UNL1        0.0655
     95 H          16.0932    2.4875    0.0000 H       1  UNL1        0.2923
     96 H          16.1866    5.1772    0.0000 H       1  UNL1        0.0660
     97 H          15.5690    5.7996    0.0000 H       1  UNL1        0.0660
     98 H          14.9466    5.1819    0.0000 H       1  UNL1        0.0660
@<TRIPOS>BOND
     1     1    21    1
     2    26     1    1
     3     2    24    1
     4     2    25    1
     5     3    26    1
     6     3    30    1
     7     4    31    1
     8    32     4    1
     9    22     5    1
    10     5    72    1
    11    25     6    1
    12     6    39    1
    13    23     7    1
    14     7    75    1
    15     8    32    1
    16     8    36    1
    17     9    27    1
    18     9    76    1
    19    28    10    1
    20    10    77    1
    21    29    11    1
    22    11    78    1
    23    33    12    1
    24    12    82    1
    25    13    34    1
    26    13    83    1
    27    35    14    1
    28    14    84    1
    29    15    37    1
    30    15    85    1
    31    16    42    1
    32    16    45    1
    33    17    44    1
    34    17    91    1
    35    18    47    2
    36    19    51    1
    37    19    95    1
    38    20    53    1
    39    20    54    1
    40    21    22    1
    41    21    25    1
    42    21    55    1
    43    22    23    1
    44    22    56    1
    45    23    24    1
    46    23    57    1
    47    24    31    1
    48    24    58    1
    49    25    59    1
    50    26    27    1
    51    26    60    1
    52    27    28    1
    53    27    61    1
    54    28    29    1
    55    28    62    1
    56    29    30    1
    57    29    63    1
    58    30    37    1
    59    30    64    1
    60    31    65    1
    61    31    66    1
    62    32    33    1
    63    32    67    1
    64    33    34    1
    65    33    68    1
    66    34    35    1
    67    34    69    1
    68    35    36    1
    69    35    70    1
    70    36    38    1
    71    36    71    1
    72    37    73    1
    73    37    74    1
    74    38    79    1
    75    38    80    1
    76    38    81    1
    77    39    40   ar
    78    39    41   ar
    79    40    42   ar
    80    40    86    1
    81    41    44   ar
    82    41    87    1
    83    42    43   ar
    84    43    44   ar
    85    43    47    1
    86    45    46    1
    87    45    48    1
    88    45    88    1
    89    46    47    1
    90    46    89    1
    91    46    90    1
    92    48    49   ar
    93    48    50   ar
    94    49    51   ar
    95    49    92    1
    96    50    52   ar
    97    50    93    1
    98    51    53   ar
    99    52    53   ar
   100    52    94    1
   101    54    96    1
   102    54    97    1
   103    54    98    1
