@<TRIPOS>MOLECULE
IMPHY001078
 20 20 0 0 0
SMALL
GASTEIGER

@<TRIPOS>ATOM
      1 O           3.7320    2.7500    0.0000 O.3     1  UNL1       -0.3947
      2 O           2.8660   -2.7500    0.0000 O.3     1  UNL1       -0.5068
      3 C           2.8660    1.2500    0.0000 C.3     1  UNL1       -0.0044
      4 C           2.8660    0.2500    0.0000 C.ar    1  UNL1       -0.0450
      5 C           3.7320    1.7500    0.0000 C.3     1  UNL1        0.0482
      6 C           3.7320   -0.2500    0.0000 C.ar    1  UNL1       -0.0551
      7 C           2.0000   -0.2500    0.0000 C.ar    1  UNL1       -0.0551
      8 C           3.7320   -1.2500    0.0000 C.ar    1  UNL1       -0.0199
      9 C           2.0000   -1.2500    0.0000 C.ar    1  UNL1       -0.0199
     10 C           2.8660   -1.7500    0.0000 C.ar    1  UNL1        0.1169
     11 H           2.6540    1.8326    0.0000 H       1  UNL1        0.0335
     12 H           2.2554    1.1423    0.0000 H       1  UNL1        0.0335
     13 H           3.9441    1.1674    0.0000 H       1  UNL1        0.0560
     14 H           4.3426    1.8577    0.0000 H       1  UNL1        0.0560
     15 H           4.2690    0.0600    0.0000 H       1  UNL1        0.0621
     16 H           1.4631    0.0600    0.0000 H       1  UNL1        0.0621
     17 H           4.2690   -1.5600    0.0000 H       1  UNL1        0.0654
     18 H           1.4631   -1.5600    0.0000 H       1  UNL1        0.0654
     19 H           4.2690    3.0600    0.0000 H       1  UNL1        0.2094
     20 H           2.3291   -3.0600    0.0000 H       1  UNL1        0.2921
@<TRIPOS>BOND
     1     1     5    1
     2     1    19    1
     3     2    10    1
     4     2    20    1
     5     3     4    1
     6     3     5    1
     7     3    11    1
     8     3    12    1
     9     4     6   ar
    10     4     7   ar
    11     5    13    1
    12     5    14    1
    13     6     8   ar
    14     6    15    1
    15     7     9   ar
    16     7    16    1
    17     8    10   ar
    18     8    17    1
    19     9    10   ar
    20     9    18    1
