@<TRIPOS>MOLECULE
IMPHY006802
 83 87 0 0 0
SMALL
GASTEIGER

@<TRIPOS>ATOM
      1 O           6.1847   -3.4688    0.0000 O.3     1  UNL1       -0.3915
      2 O           2.5357   -2.4518    0.0000 O.3     1  UNL1       -0.3887
      3 O           2.5519   -0.3602    0.0000 O.3     1  UNL1       -0.3892
      4 O          11.4608    0.6346    0.0000 O.3     1  UNL1       -0.4802
      5 O          10.6064   -0.8720    0.0000 O.2     1  UNL1       -0.2504
      6 C           7.0628   -0.8995    0.0000 C.3     1  UNL1       -0.0170
      7 C           6.1968   -0.3995    0.0000 C.3     1  UNL1       -0.0255
      8 C           5.2868   -0.9064    0.0000 C.3     1  UNL1       -0.0203
      9 C           7.9288   -0.3995    0.0000 C.3     1  UNL1       -0.0050
     10 C           5.2787   -1.9480    0.0000 C.3     1  UNL1       -0.0016
     11 C           7.0789   -1.9410    0.0000 C.3     1  UNL1       -0.0201
     12 C           6.1808   -2.4688    0.0000 C.3     1  UNL1        0.0597
     13 C           7.9288    0.6005    0.0000 C.2     1  UNL1       -0.0626
     14 C           4.3433   -2.4977    0.0000 C.3     1  UNL1       -0.0008
     15 C           8.8228    1.1351    0.0000 C.3     1  UNL1       -0.0008
     16 C           6.1968    0.6005    0.0000 C.3     1  UNL1       -0.0306
     17 C           4.3599   -0.3423    0.0000 C.3     1  UNL1       -0.0184
     18 C           8.8228   -0.9342    0.0000 C.3     1  UNL1       -0.0424
     19 C           9.7288    0.6213    0.0000 C.3     1  UNL1        0.0743
     20 C           7.7056   -1.6656    0.0000 C.3     1  UNL1       -0.0584
     21 C           9.7288   -0.4203    0.0000 C.3     1  UNL1       -0.0359
     22 C           3.4037   -1.9552    0.0000 C.3     1  UNL1        0.0865
     23 C           7.0628    1.1005    0.0000 C.2     1  UNL1       -0.0836
     24 C           5.2945    0.0936    0.0000 C.3     1  UNL1       -0.0588
     25 C           3.4120   -0.8702    0.0000 C.3     1  UNL1        0.0821
     26 C           8.2709   -1.3392    0.0000 C.3     1  UNL1       -0.0553
     27 C           8.7977    2.2198    0.0000 C.3     1  UNL1       -0.0337
     28 C          10.6726    1.1565    0.0000 C.3     1  UNL1       -0.0364
     29 C           9.7288    2.7768    0.0000 C.3     1  UNL1       -0.0407
     30 C           3.8467   -3.3656    0.0000 C.3     1  UNL1       -0.0570
     31 C           4.8466   -3.3618    0.0000 C.3     1  UNL1       -0.0570
     32 C          10.6726    2.2415    0.0000 C.3     1  UNL1       -0.0492
     33 C          10.5987    0.1280    0.0000 C.2     1  UNL1        0.3115
     34 C           7.9222    2.7031    0.0000 C.3     1  UNL1       -0.0616
     35 C           9.7173    3.7767    0.0000 C.3     1  UNL1       -0.0622
     36 H           6.9329    0.0255    0.0000 H       1  UNL1        0.0315
     37 H           5.2820   -2.7980    0.0000 H       1  UNL1        0.0337
     38 H           7.2969   -2.5214    0.0000 H       1  UNL1        0.0296
     39 H           7.6880   -1.8255    0.0000 H       1  UNL1        0.0296
     40 H           6.7195   -2.7757    0.0000 H       1  UNL1        0.0596
     41 H           8.0786    1.5459    0.0000 H       1  UNL1        0.0359
     42 H           5.9847    1.1831    0.0000 H       1  UNL1        0.0310
     43 H           5.5862    0.4928    0.0000 H       1  UNL1        0.0310
     44 H           4.7681    0.1244    0.0000 H       1  UNL1        0.0296
     45 H           3.9700    0.1398    0.0000 H       1  UNL1        0.0296
     46 H           8.4182   -1.4040    0.0000 H       1  UNL1        0.0274
     47 H           9.2164   -1.4132    0.0000 H       1  UNL1        0.0274
     48 H           7.2306   -2.0641    0.0000 H       1  UNL1        0.0235
     49 H           8.1041   -2.1405    0.0000 H       1  UNL1        0.0235
     50 H           8.1805   -1.2670    0.0000 H       1  UNL1        0.0235
     51 H           9.9379   -1.0040    0.0000 H       1  UNL1        0.0276
     52 H          10.3397   -0.3142    0.0000 H       1  UNL1        0.0276
     53 H           2.8686   -1.6421    0.0000 H       1  UNL1        0.0624
     54 H           7.0628    1.7205    0.0000 H       1  UNL1        0.0572
     55 H           5.9145    0.0888    0.0000 H       1  UNL1        0.0235
     56 H           5.2993    0.7136    0.0000 H       1  UNL1        0.0235
     57 H           4.6745    0.0984    0.0000 H       1  UNL1        0.0235
     58 H           2.8722   -1.1750    0.0000 H       1  UNL1        0.0619
     59 H           7.6884   -1.5513    0.0000 H       1  UNL1        0.0238
     60 H           8.4830   -1.9218    0.0000 H       1  UNL1        0.0238
     61 H           8.8535   -1.1271    0.0000 H       1  UNL1        0.0238
     62 H           8.2674    1.8985    0.0000 H       1  UNL1        0.0307
     63 H          10.8817    0.5728    0.0000 H       1  UNL1        0.0276
     64 H          11.2835    1.2626    0.0000 H       1  UNL1        0.0276
     65 H          10.2628    3.0919    0.0000 H       1  UNL1        0.0301
     66 H           4.3109   -3.6738    0.0000 H       1  UNL1        0.0236
     67 H           5.1587   -3.8975    0.0000 H       1  UNL1        0.0236
     68 H           5.3824   -3.0497    0.0000 H       1  UNL1        0.0236
     69 H           3.3085   -3.0577    0.0000 H       1  UNL1        0.0236
     70 H           3.5387   -3.9038    0.0000 H       1  UNL1        0.0236
     71 H           4.3848   -3.6736    0.0000 H       1  UNL1        0.0236
     72 H          11.2835    2.1354    0.0000 H       1  UNL1        0.0268
     73 H          10.8817    2.8252    0.0000 H       1  UNL1        0.0268
     74 H           6.7228   -3.7767    0.0000 H       1  UNL1        0.2098
     75 H           8.2218    3.2459    0.0000 H       1  UNL1        0.0233
     76 H           7.3794    3.0027    0.0000 H       1  UNL1        0.0233
     77 H           7.6226    2.1602    0.0000 H       1  UNL1        0.0233
     78 H           2.0000   -2.1398    0.0000 H       1  UNL1        0.2099
     79 H           2.5590    0.2597    0.0000 H       1  UNL1        0.2099
     80 H          10.3372    3.7839    0.0000 H       1  UNL1        0.0233
     81 H           9.7101    4.3967    0.0000 H       1  UNL1        0.0233
     82 H           9.0973    3.7695    0.0000 H       1  UNL1        0.0233
     83 H          12.0001    0.3288    0.0000 H       1  UNL1        0.2951
@<TRIPOS>BOND
     1    12     1    1
     2     1    74    1
     3    22     2    1
     4     2    78    1
     5    25     3    1
     6     3    79    1
     7     4    33    1
     8     4    83    1
     9     5    33    2
    10     6     7    1
    11     6     9    1
    12     6    11    1
    13     6    20    1
    14     7     8    1
    15     7    16    1
    16     7    36    1
    17     8    10    1
    18     8    17    1
    19     8    24    1
    20     9    13    1
    21     9    18    1
    22     9    26    1
    23    10    12    1
    24    10    14    1
    25    10    37    1
    26    11    12    1
    27    11    38    1
    28    11    39    1
    29    12    40    1
    30    13    15    1
    31    13    23    2
    32    14    22    1
    33    14    30    1
    34    14    31    1
    35    15    19    1
    36    15    27    1
    37    15    41    1
    38    16    23    1
    39    16    42    1
    40    16    43    1
    41    17    25    1
    42    17    44    1
    43    17    45    1
    44    18    21    1
    45    18    46    1
    46    18    47    1
    47    19    21    1
    48    19    28    1
    49    19    33    1
    50    20    48    1
    51    20    49    1
    52    20    50    1
    53    21    51    1
    54    21    52    1
    55    22    25    1
    56    22    53    1
    57    23    54    1
    58    24    55    1
    59    24    56    1
    60    24    57    1
    61    25    58    1
    62    26    59    1
    63    26    60    1
    64    26    61    1
    65    27    29    1
    66    27    34    1
    67    27    62    1
    68    28    32    1
    69    28    63    1
    70    28    64    1
    71    29    32    1
    72    29    35    1
    73    29    65    1
    74    30    69    1
    75    30    70    1
    76    30    71    1
    77    31    66    1
    78    31    67    1
    79    31    68    1
    80    32    72    1
    81    32    73    1
    82    34    75    1
    83    34    76    1
    84    34    77    1
    85    35    80    1
    86    35    81    1
    87    35    82    1
