@<TRIPOS>MOLECULE
IMPHY011985
 72 76 0 0 0
SMALL
GASTEIGER

@<TRIPOS>ATOM
      1 O           6.9343    0.4050    0.0000 O.3     1  UNL1       -0.3313
      2 O           6.0682   -2.0950    0.0000 O.3     1  UNL1       -0.3461
      3 O           4.3362   -2.0950    0.0000 O.3     1  UNL1       -0.3431
      4 O           7.8003   -2.0950    0.0000 O.3     1  UNL1       -0.3865
      5 O           9.5323   -1.0950    0.0000 O.3     1  UNL1       -0.3864
      6 O           7.8003    1.9050    0.0000 O.3     1  UNL1       -0.4532
      7 O           9.5323    0.9050    0.0000 O.3     1  UNL1       -0.3829
      8 O           6.0682   -4.0950    0.0000 O.3     1  UNL1       -0.3841
      9 O           4.3362   -5.0950    0.0000 O.3     1  UNL1       -0.3864
     10 O           2.6042   -4.0950    0.0000 O.3     1  UNL1       -0.3866
     11 O           6.0682    3.9050    0.0000 O.2     1  UNL1       -0.4507
     12 O           6.0682    0.9050    0.0000 O.2     1  UNL1       -0.2830
     13 O           4.3198    0.8704    0.0000 O.3     1  UNL1       -0.5058
     14 O           2.5381    3.9292    0.0000 O.3     1  UNL1       -0.5065
     15 O          10.3984    5.4050    0.0000 O.3     1  UNL1       -0.5068
     16 C           6.9343   -0.5950    0.0000 C.3     1  UNL1        0.1144
     17 C           7.8003   -1.0950    0.0000 C.3     1  UNL1        0.1120
     18 C           8.6663   -0.5950    0.0000 C.3     1  UNL1        0.1152
     19 C           8.6663    0.4050    0.0000 C.3     1  UNL1        0.1454
     20 C           5.2022   -3.5950    0.0000 C.3     1  UNL1        0.1341
     21 C           5.2022   -2.5950    0.0000 C.3     1  UNL1        0.1879
     22 C           4.3362   -4.0950    0.0000 C.3     1  UNL1        0.1140
     23 C           3.4702   -3.5950    0.0000 C.3     1  UNL1        0.1095
     24 C           7.8003    0.9050    0.0000 C.3     1  UNL1        0.2311
     25 C           6.0682   -1.0950    0.0000 C.3     1  UNL1        0.0796
     26 C           3.4702   -2.5950    0.0000 C.3     1  UNL1        0.0873
     27 C           2.6042   -2.0950    0.0000 C.3     1  UNL1       -0.0361
     28 C           6.9343    2.4050    0.0000 C.ar    1  UNL1        0.2138
     29 C           6.9343    3.4050    0.0000 C.ar    1  UNL1        0.1809
     30 C           6.0682    1.9050    0.0000 C.ar    1  UNL1        0.2382
     31 C           5.2022    2.4050    0.0000 C.ar    1  UNL1        0.1092
     32 C           5.2022    3.4050    0.0000 C.ar    1  UNL1        0.1465
     33 C           7.8003    3.9050    0.0000 C.ar    1  UNL1        0.0213
     34 C           4.3083    1.8703    0.0000 C.ar    1  UNL1        0.1348
     35 C           4.3083    3.9397    0.0000 C.ar    1  UNL1        0.0231
     36 C           7.8003    4.9050    0.0000 C.ar    1  UNL1       -0.0475
     37 C           8.6663    3.4050    0.0000 C.ar    1  UNL1       -0.0475
     38 C           3.4022    2.3842    0.0000 C.ar    1  UNL1        0.0223
     39 C           3.4022    3.4258    0.0000 C.ar    1  UNL1        0.1239
     40 C           8.6663    5.4050    0.0000 C.ar    1  UNL1       -0.0195
     41 C           9.5323    3.9050    0.0000 C.ar    1  UNL1       -0.0195
     42 C           9.5323    4.9050    0.0000 C.ar    1  UNL1        0.1169
     43 H           6.3973   -0.2850    0.0000 H       1  UNL1        0.0647
     44 H           8.3372   -1.4050    0.0000 H       1  UNL1        0.0647
     45 H           9.2033   -0.2850    0.0000 H       1  UNL1        0.0648
     46 H           9.2033    0.0950    0.0000 H       1  UNL1        0.0683
     47 H           5.7392   -3.2850    0.0000 H       1  UNL1        0.0671
     48 H           5.2022   -1.9750    0.0000 H       1  UNL1        0.0937
     49 H           3.7993   -4.4050    0.0000 H       1  UNL1        0.0648
     50 H           2.9332   -3.2850    0.0000 H       1  UNL1        0.0646
     51 H           8.3372    1.2150    0.0000 H       1  UNL1        0.1084
     52 H           5.8562   -0.5124    0.0000 H       1  UNL1        0.0587
     53 H           5.4577   -1.2027    0.0000 H       1  UNL1        0.0587
     54 H           3.4702   -1.9750    0.0000 H       1  UNL1        0.0621
     55 H           2.9141   -1.5581    0.0000 H       1  UNL1        0.0255
     56 H           2.0672   -1.7850    0.0000 H       1  UNL1        0.0255
     57 H           2.2942   -2.6319    0.0000 H       1  UNL1        0.0255
     58 H           8.3372   -2.4050    0.0000 H       1  UNL1        0.2100
     59 H          10.0693   -0.7850    0.0000 H       1  UNL1        0.2100
     60 H           9.5323    1.5250    0.0000 H       1  UNL1        0.2102
     61 H           6.6052   -3.7850    0.0000 H       1  UNL1        0.2101
     62 H           3.7993   -5.4050    0.0000 H       1  UNL1        0.2100
     63 H           2.0672   -3.7850    0.0000 H       1  UNL1        0.2100
     64 H           4.3154    4.5596    0.0000 H       1  UNL1        0.0691
     65 H           7.2634    5.2150    0.0000 H       1  UNL1        0.0626
     66 H           8.6663    2.7850    0.0000 H       1  UNL1        0.0626
     67 H           2.8665    2.0721    0.0000 H       1  UNL1        0.0691
     68 H           8.6663    6.0250    0.0000 H       1  UNL1        0.0654
     69 H          10.0693    3.5950    0.0000 H       1  UNL1        0.0654
     70 H           3.7865    0.5542    0.0000 H       1  UNL1        0.2922
     71 H           2.0000    3.6212    0.0000 H       1  UNL1        0.2921
     72 H          10.9353    5.0950    0.0000 H       1  UNL1        0.2921
@<TRIPOS>BOND
     1     1    16    1
     2     1    24    1
     3    21     2    1
     4     2    25    1
     5     3    21    1
     6     3    26    1
     7    17     4    1
     8     4    58    1
     9    18     5    1
    10     5    59    1
    11    24     6    1
    12     6    28    1
    13    19     7    1
    14     7    60    1
    15    20     8    1
    16     8    61    1
    17    22     9    1
    18     9    62    1
    19    23    10    1
    20    10    63    1
    21    11    29   ar
    22    11    32   ar
    23    12    30    2
    24    13    34    1
    25    13    70    1
    26    14    39    1
    27    14    71    1
    28    15    42    1
    29    15    72    1
    30    16    17    1
    31    16    25    1
    32    16    43    1
    33    17    18    1
    34    17    44    1
    35    18    19    1
    36    18    45    1
    37    19    24    1
    38    19    46    1
    39    20    21    1
    40    20    22    1
    41    20    47    1
    42    21    48    1
    43    22    23    1
    44    22    49    1
    45    23    26    1
    46    23    50    1
    47    24    51    1
    48    25    52    1
    49    25    53    1
    50    26    27    1
    51    26    54    1
    52    27    55    1
    53    27    56    1
    54    27    57    1
    55    28    29   ar
    56    28    30   ar
    57    29    33    1
    58    30    31   ar
    59    31    32   ar
    60    31    34   ar
    61    32    35   ar
    62    33    36   ar
    63    33    37   ar
    64    34    38   ar
    65    35    39   ar
    66    35    64    1
    67    36    40   ar
    68    36    65    1
    69    37    41   ar
    70    37    66    1
    71    38    39   ar
    72    38    67    1
    73    40    42   ar
    74    40    68    1
    75    41    42   ar
    76    41    69    1
