@<TRIPOS>MOLECULE
IMPHY010835
 50 53 0 0 0
SMALL
GASTEIGER

@<TRIPOS>ATOM
      1 O           6.9006    0.2726    0.0000 O.3     1  UNL1       -0.4732
      2 O           6.9006   -1.7967    0.0000 O.3     1  UNL1       -0.4754
      3 O           5.1343   -2.7862    0.0000 O.3     1  UNL1       -0.3912
      4 O           8.6445    1.2794    0.0000 O.2     1  UNL1       -0.4183
      5 O           8.6605   -2.7621    0.0000 O.3     1  UNL1       -0.4913
      6 O           2.5304   -0.2279    0.0000 O.3     1  UNL1       -0.4913
      7 O           4.2740    2.7654    0.0000 O.3     1  UNL1       -0.4913
      8 O           2.5381    1.7721    0.0000 O.3     1  UNL1       -0.5009
      9 O           9.5386    2.8072    0.0000 O.2     1  UNL1       -0.2452
     10 C           5.9945   -0.2412    0.0000 C.3     1  UNL1        0.1645
     11 C           5.9945   -1.2829    0.0000 C.3     1  UNL1        0.1641
     12 C           5.1304    0.2621    0.0000 C.ar    1  UNL1        0.0034
     13 C           7.7945   -0.2621    0.0000 C.ar    1  UNL1        0.2096
     14 C           7.7945   -1.2621    0.0000 C.ar    1  UNL1        0.2080
     15 C           5.1304   -1.7862    0.0000 C.3     1  UNL1        0.0850
     16 C           8.6605    0.2379    0.0000 C.ar    1  UNL1        0.1844
     17 C           8.6605   -1.7621    0.0000 C.ar    1  UNL1        0.1660
     18 C           5.1343    1.2621    0.0000 C.ar    1  UNL1       -0.0093
     19 C           4.2625   -0.2346    0.0000 C.ar    1  UNL1       -0.0093
     20 C           9.5266   -0.2621    0.0000 C.ar    1  UNL1        0.0250
     21 C           9.5266   -1.2621    0.0000 C.ar    1  UNL1       -0.0054
     22 C           3.3984    0.2688    0.0000 C.ar    1  UNL1        0.1654
     23 C           4.2702    1.7654    0.0000 C.ar    1  UNL1        0.1654
     24 C           3.4022    1.2688    0.0000 C.ar    1  UNL1        0.2010
     25 C          10.4366    0.2448    0.0000 C.ar    1  UNL1       -0.0441
     26 C          10.4446    1.2864    0.0000 C.ar    1  UNL1        0.0236
     27 C           9.5425    1.8072    0.0000 C.ar    1  UNL1        0.3373
     28 C           9.5266   -3.2621    0.0000 C.3     1  UNL1        0.0790
     29 C           2.5266   -1.2279    0.0000 C.3     1  UNL1        0.0790
     30 C           5.1420    3.2621    0.0000 C.3     1  UNL1        0.0790
     31 H           5.9981    0.3787    0.0000 H       1  UNL1        0.0823
     32 H           5.9981   -1.9029    0.0000 H       1  UNL1        0.0798
     33 H           4.9161   -1.2044    0.0000 H       1  UNL1        0.0595
     34 H           4.5202   -1.8962    0.0000 H       1  UNL1        0.0595
     35 H           5.6724    1.5700    0.0000 H       1  UNL1        0.0659
     36 H           4.2601   -0.8546    0.0000 H       1  UNL1        0.0659
     37 H          10.0635   -1.5721    0.0000 H       1  UNL1        0.0662
     38 H          10.9699   -0.0714    0.0000 H       1  UNL1        0.0627
     39 H           4.5985   -3.0983    0.0000 H       1  UNL1        0.2096
     40 H          10.9827    1.5943    0.0000 H       1  UNL1        0.0689
     41 H           9.2166   -3.7990    0.0000 H       1  UNL1        0.0660
     42 H          10.0635   -3.5721    0.0000 H       1  UNL1        0.0660
     43 H           9.8366   -2.7251    0.0000 H       1  UNL1        0.0660
     44 H           2.0000    1.4642    0.0000 H       1  UNL1        0.2924
     45 H           1.9066   -1.2255    0.0000 H       1  UNL1        0.0660
     46 H           2.5242   -1.8479    0.0000 H       1  UNL1        0.0660
     47 H           3.1466   -1.2303    0.0000 H       1  UNL1        0.0660
     48 H           5.4499    2.7239    0.0000 H       1  UNL1        0.0660
     49 H           5.6801    3.5700    0.0000 H       1  UNL1        0.0660
     50 H           4.8340    3.8002    0.0000 H       1  UNL1        0.0660
@<TRIPOS>BOND
     1     1    10    1
     2     1    13    1
     3     2    11    1
     4     2    14    1
     5     3    15    1
     6     3    39    1
     7     4    16   ar
     8     4    27   ar
     9     5    17    1
    10     5    28    1
    11     6    22    1
    12     6    29    1
    13     7    23    1
    14     7    30    1
    15     8    24    1
    16     8    44    1
    17     9    27    2
    18    10    11    1
    19    10    12    1
    20    10    31    1
    21    11    15    1
    22    11    32    1
    23    12    18   ar
    24    12    19   ar
    25    13    14   ar
    26    13    16   ar
    27    14    17   ar
    28    15    33    1
    29    15    34    1
    30    16    20   ar
    31    17    21   ar
    32    18    23   ar
    33    18    35    1
    34    19    22   ar
    35    19    36    1
    36    20    21   ar
    37    20    25   ar
    38    21    37    1
    39    22    24   ar
    40    23    24   ar
    41    25    26   ar
    42    25    38    1
    43    26    27   ar
    44    26    40    1
    45    28    41    1
    46    28    42    1
    47    28    43    1
    48    29    45    1
    49    29    46    1
    50    29    47    1
    51    30    48    1
    52    30    49    1
    53    30    50    1
