@<TRIPOS>MOLECULE
IMPHY001840
 24 23 0 0 0
SMALL
GASTEIGER

@<TRIPOS>ATOM
      1 O           4.5981   -0.5950    0.0000 O.3     1  UNL1       -0.3918
      2 C           4.5981    0.4050    0.0000 C.3     1  UNL1        0.0552
      3 C           5.4641    0.9050    0.0000 C.3     1  UNL1       -0.0271
      4 C           3.7320    0.9050    0.0000 C.3     1  UNL1       -0.0271
      5 C           6.3301    0.4050    0.0000 C.3     1  UNL1       -0.0536
      6 C           2.8660    0.4050    0.0000 C.3     1  UNL1       -0.0536
      7 C           7.1962    0.9050    0.0000 C.3     1  UNL1       -0.0652
      8 C           2.0000    0.9050    0.0000 C.3     1  UNL1       -0.0652
      9 H           5.1350    0.0950    0.0000 H       1  UNL1        0.0593
     10 H           4.1306    1.3800    0.0000 H       1  UNL1        0.0290
     11 H           3.3335    1.3800    0.0000 H       1  UNL1        0.0290
     12 H           5.8626    1.3800    0.0000 H       1  UNL1        0.0290
     13 H           5.0656    1.3800    0.0000 H       1  UNL1        0.0290
     14 H           5.9316   -0.0699    0.0000 H       1  UNL1        0.0263
     15 H           6.7287   -0.0699    0.0000 H       1  UNL1        0.0263
     16 H           2.4675   -0.0699    0.0000 H       1  UNL1        0.0263
     17 H           3.2646   -0.0699    0.0000 H       1  UNL1        0.0263
     18 H           7.5062    0.3681    0.0000 H       1  UNL1        0.0230
     19 H           7.7331    1.2150    0.0000 H       1  UNL1        0.0230
     20 H           6.8862    1.4419    0.0000 H       1  UNL1        0.0230
     21 H           2.3100    1.4419    0.0000 H       1  UNL1        0.0230
     22 H           1.4631    1.2150    0.0000 H       1  UNL1        0.0230
     23 H           1.6900    0.3681    0.0000 H       1  UNL1        0.0230
     24 H           4.0611   -0.9050    0.0000 H       1  UNL1        0.2098
@<TRIPOS>BOND
     1     1     2    1
     2     1    24    1
     3     2     3    1
     4     2     4    1
     5     2     9    1
     6     3     5    1
     7     3    12    1
     8     3    13    1
     9     4     6    1
    10     4    10    1
    11     4    11    1
    12     5     7    1
    13     5    14    1
    14     5    15    1
    15     6     8    1
    16     6    16    1
    17     6    17    1
    18     7    18    1
    19     7    19    1
    20     7    20    1
    21     8    21    1
    22     8    22    1
    23     8    23    1
