@<TRIPOS>MOLECULE
IMPHY005352
 43 47 0 0 0
SMALL
GASTEIGER

@<TRIPOS>ATOM
      1 O           6.8190   -1.6589    0.0000 O.3     1  UNL1       -0.4803
      2 O           6.6098    1.3129    0.0000 O.3     1  UNL1       -0.4875
      3 O           8.3419    0.3129    0.0000 O.3     1  UNL1       -0.3765
      4 O           3.0000    1.3689    0.0000 O.3     1  UNL1       -0.4815
      5 O          10.0173   -3.3219    0.0000 O.3     1  UNL1       -0.5066
      6 C           7.4758   -0.1871    0.0000 C.3     1  UNL1        0.1689
      7 C           6.6098   -0.6871    0.0000 C.3     1  UNL1        0.1645
      8 C           8.2129   -0.8542    0.0000 C.ar    1  UNL1        0.0330
      9 C           7.4758    0.8129    0.0000 C.3     1  UNL1        0.1264
     10 C           5.7438   -0.1871    0.0000 C.ar    1  UNL1        0.0384
     11 C           5.7438    0.8129    0.0000 C.ar    1  UNL1        0.1380
     12 C           7.8077   -1.7620    0.0000 C.ar    1  UNL1        0.1312
     13 C           4.8498    1.3475    0.0000 C.ar    1  UNL1        0.0585
     14 C           4.8498   -0.7218    0.0000 C.ar    1  UNL1       -0.0480
     15 C           9.2410   -0.7310    0.0000 C.ar    1  UNL1       -0.0487
     16 C           3.9438    0.8337    0.0000 C.ar    1  UNL1        0.1324
     17 C           3.0000    2.4539    0.0000 C.3     1  UNL1        0.1235
     18 C           8.4026   -2.6095    0.0000 C.ar    1  UNL1        0.0219
     19 C           3.9438   -0.2079    0.0000 C.ar    1  UNL1       -0.0187
     20 C           4.8749    2.4322    0.0000 C.2     1  UNL1       -0.0478
     21 C           3.9438    2.9892    0.0000 C.2     1  UNL1       -0.0408
     22 C           9.8553   -1.5645    0.0000 C.ar    1  UNL1       -0.0196
     23 C           9.4333   -2.5101    0.0000 C.ar    1  UNL1        0.1204
     24 C           2.5033    3.3219    0.0000 C.3     1  UNL1       -0.0215
     25 C           2.0000    2.4578    0.0000 C.3     1  UNL1       -0.0215
     26 H           5.9228   -1.1876    0.0000 H       1  UNL1        0.0820
     27 H           8.0864    0.7052    0.0000 H       1  UNL1        0.0730
     28 H           7.6879    1.3955    0.0000 H       1  UNL1        0.0730
     29 H           4.8570   -1.3417    0.0000 H       1  UNL1        0.0624
     30 H           8.3419    0.9329    0.0000 H       1  UNL1        0.2109
     31 H           9.4871   -0.1619    0.0000 H       1  UNL1        0.0623
     32 H           3.4080   -0.5200    0.0000 H       1  UNL1        0.0654
     33 H           8.1434   -3.1727    0.0000 H       1  UNL1        0.0691
     34 H           5.4178    2.7318    0.0000 H       1  UNL1        0.0624
     35 H           3.9510    3.6091    0.0000 H       1  UNL1        0.0611
     36 H          10.4717   -1.4979    0.0000 H       1  UNL1        0.0654
     37 H           2.0024    3.0778    0.0000 H       1  UNL1        0.0271
     38 H           1.3800    2.4602    0.0000 H       1  UNL1        0.0271
     39 H           1.9976    1.8378    0.0000 H       1  UNL1        0.0271
     40 H           3.0415    3.6298    0.0000 H       1  UNL1        0.0271
     41 H           2.1954    3.8600    0.0000 H       1  UNL1        0.0271
     42 H           1.9652    3.0140    0.0000 H       1  UNL1        0.0271
     43 H          10.6342   -3.2600    0.0000 H       1  UNL1        0.2921
@<TRIPOS>BOND
     1     1     7    1
     2     1    12    1
     3     2     9    1
     4     2    11    1
     5     6     3    1
     6     3    30    1
     7     4    16    1
     8     4    17    1
     9     5    23    1
    10     5    43    1
    11     6     7    1
    12     6     8    1
    13     6     9    1
    14     7    10    1
    15     7    26    1
    16     8    12   ar
    17     8    15   ar
    18     9    27    1
    19     9    28    1
    20    10    11   ar
    21    10    14   ar
    22    11    13   ar
    23    12    18   ar
    24    13    16   ar
    25    13    20    1
    26    14    19   ar
    27    14    29    1
    28    15    22   ar
    29    15    31    1
    30    16    19   ar
    31    17    21    1
    32    17    24    1
    33    17    25    1
    34    18    23   ar
    35    18    33    1
    36    19    32    1
    37    20    21    2
    38    20    34    1
    39    21    35    1
    40    22    23   ar
    41    22    36    1
    42    24    40    1
    43    24    41    1
    44    24    42    1
    45    25    37    1
    46    25    38    1
    47    25    39    1
