@<TRIPOS>MOLECULE
IMPHY007499
 35 36 0 0 0
SMALL
GASTEIGER

@<TRIPOS>ATOM
      1 O           2.8660   -0.9050    0.0000 O.3     1  UNL1       -0.4907
      2 O           2.8660   -2.9050    0.0000 O.3     1  UNL1       -0.5009
      3 O           4.5981   -3.9050    0.0000 O.3     1  UNL1       -0.5032
      4 O           4.5981    2.0950    0.0000 O.2     1  UNL1       -0.2873
      5 O           8.9282    3.5950    0.0000 O.3     1  UNL1       -0.5068
      6 C           4.5981   -0.9050    0.0000 C.ar    1  UNL1        0.0207
      7 C           3.7320   -1.4050    0.0000 C.ar    1  UNL1        0.1721
      8 C           3.7320   -2.4050    0.0000 C.ar    1  UNL1        0.2014
      9 C           5.4641   -1.4050    0.0000 C.ar    1  UNL1       -0.0474
     10 C           4.5981    0.0950    0.0000 C.2     1  UNL1       -0.0473
     11 C           4.5981   -2.9050    0.0000 C.ar    1  UNL1        0.1620
     12 C           5.4641   -2.4050    0.0000 C.ar    1  UNL1       -0.0157
     13 C           6.3301    2.0950    0.0000 C.ar    1  UNL1        0.0219
     14 C           5.4641    0.5950    0.0000 C.2     1  UNL1       -0.0137
     15 C           5.4641    1.5950    0.0000 C.2     1  UNL1        0.1861
     16 C           6.3301    3.0950    0.0000 C.ar    1  UNL1       -0.0475
     17 C           7.1962    1.5950    0.0000 C.ar    1  UNL1       -0.0475
     18 C           7.1962    3.5950    0.0000 C.ar    1  UNL1       -0.0195
     19 C           8.0622    2.0950    0.0000 C.ar    1  UNL1       -0.0195
     20 C           8.0622    3.0950    0.0000 C.ar    1  UNL1        0.1169
     21 C           2.0000   -1.4050    0.0000 C.3     1  UNL1        0.0790
     22 H           6.0010   -1.0950    0.0000 H       1  UNL1        0.0626
     23 H           4.0611    0.4050    0.0000 H       1  UNL1        0.0626
     24 H           6.0010   -2.7150    0.0000 H       1  UNL1        0.0655
     25 H           6.0010    0.2850    0.0000 H       1  UNL1        0.0656
     26 H           5.7932    3.4050    0.0000 H       1  UNL1        0.0626
     27 H           7.1962    0.9750    0.0000 H       1  UNL1        0.0626
     28 H           7.1962    4.2150    0.0000 H       1  UNL1        0.0654
     29 H           8.5991    1.7850    0.0000 H       1  UNL1        0.0654
     30 H           1.6900   -0.8681    0.0000 H       1  UNL1        0.0660
     31 H           1.4631   -1.7150    0.0000 H       1  UNL1        0.0660
     32 H           2.3100   -1.9419    0.0000 H       1  UNL1        0.0660
     33 H           2.8660   -3.5250    0.0000 H       1  UNL1        0.2924
     34 H           5.1350   -4.2150    0.0000 H       1  UNL1        0.2923
     35 H           8.9282    4.2150    0.0000 H       1  UNL1        0.2921
@<TRIPOS>BOND
     1     1     7    1
     2     1    21    1
     3     2     8    1
     4     2    33    1
     5     3    11    1
     6     3    34    1
     7     4    15    2
     8     5    20    1
     9     5    35    1
    10     6     7   ar
    11     6     9   ar
    12     6    10    1
    13     7     8   ar
    14     8    11   ar
    15     9    12   ar
    16     9    22    1
    17    10    14    2
    18    10    23    1
    19    11    12   ar
    20    12    24    1
    21    13    15    1
    22    13    16   ar
    23    13    17   ar
    24    14    15    1
    25    14    25    1
    26    16    18   ar
    27    16    26    1
    28    17    19   ar
    29    17    27    1
    30    18    20   ar
    31    18    28    1
    32    19    20   ar
    33    19    29    1
    34    21    30    1
    35    21    31    1
    36    21    32    1
