@<TRIPOS>MOLECULE
IMPHY017038
 39 41 0 0 0
SMALL
GASTEIGER

@<TRIPOS>ATOM
      1 C           4.6141   -1.7569    0.0000 C.3     1  UNL1       -0.0230
      2 C           4.5981    1.2846    0.0000 C.3     1  UNL1       -0.0256
      3 C           4.5981   -0.7154    0.0000 C.3     1  UNL1       -0.0258
      4 C           3.7320   -0.2154    0.0000 C.3     1  UNL1       -0.0049
      5 C           3.7320    0.7846    0.0000 C.3     1  UNL1       -0.0375
      6 C           5.4641    0.7846    0.0000 C.3     1  UNL1       -0.0468
      7 C           5.4641   -0.2154    0.0000 C.3     1  UNL1       -0.0484
      8 C           3.7161   -2.2846    0.0000 C.3     1  UNL1       -0.0468
      9 C           2.8220   -0.7222    0.0000 C.3     1  UNL1       -0.0434
     10 C           2.8140   -1.7638    0.0000 C.3     1  UNL1       -0.0517
     11 C           5.4859   -2.2468    0.0000 C.3     1  UNL1       -0.0588
     12 C           4.5981    2.2846    0.0000 C.3     1  UNL1       -0.0590
     13 C           2.8660    0.2846    0.0000 C.2     1  UNL1       -0.0732
     14 C           2.0000   -0.2154    0.0000 C.3     1  UNL1       -0.0435
     15 C           2.8660    1.2846    0.0000 C.2     1  UNL1       -0.0992
     16 H           5.3342   -1.1404    0.0000 H       1  UNL1        0.0315
     17 H           3.5200    1.3672    0.0000 H       1  UNL1        0.0279
     18 H           3.1215    0.6770    0.0000 H       1  UNL1        0.0279
     19 H           6.0747    0.6770    0.0000 H       1  UNL1        0.0271
     20 H           5.6762    1.3672    0.0000 H       1  UNL1        0.0271
     21 H           5.6762   -0.7980    0.0000 H       1  UNL1        0.0269
     22 H           6.0747   -0.1077    0.0000 H       1  UNL1        0.0269
     23 H           3.3188   -2.7606    0.0000 H       1  UNL1        0.0271
     24 H           4.1171   -2.7575    0.0000 H       1  UNL1        0.0271
     25 H           2.6175   -0.1369    0.0000 H       1  UNL1        0.0274
     26 H           2.2104   -0.8236    0.0000 H       1  UNL1        0.0274
     27 H           2.2040   -1.6530    0.0000 H       1  UNL1        0.0266
     28 H           2.6005   -2.3459    0.0000 H       1  UNL1        0.0266
     29 H           5.1821   -2.7873    0.0000 H       1  UNL1        0.0235
     30 H           6.0264   -2.5506    0.0000 H       1  UNL1        0.0235
     31 H           5.7897   -1.7063    0.0000 H       1  UNL1        0.0235
     32 H           5.2181    2.2846    0.0000 H       1  UNL1        0.0235
     33 H           4.5981    2.9046    0.0000 H       1  UNL1        0.0235
     34 H           3.9781    2.2846    0.0000 H       1  UNL1        0.0235
     35 H           1.6900    0.3216    0.0000 H       1  UNL1        0.0274
     36 H           1.4631   -0.5254    0.0000 H       1  UNL1        0.0274
     37 H           2.3100   -0.7523    0.0000 H       1  UNL1        0.0274
     38 H           3.4030    1.5946    0.0000 H       1  UNL1        0.0534
     39 H           2.3291    1.5946    0.0000 H       1  UNL1        0.0534
@<TRIPOS>BOND
     1     1     2    1
     2     1     3    1
     3     1     8    1
     4     1    11    1
     5     2     5    1
     6     2     6    1
     7     2    12    1
     8     3     4    1
     9     3     7    1
    10     3    16    1
    11     4     5    1
    12     4     9    1
    13     4    13    1
    14     5    17    1
    15     5    18    1
    16     6     7    1
    17     6    19    1
    18     6    20    1
    19     7    21    1
    20     7    22    1
    21     8    10    1
    22     8    23    1
    23     8    24    1
    24     9    10    1
    25     9    25    1
    26     9    26    1
    27    10    27    1
    28    10    28    1
    29    11    29    1
    30    11    30    1
    31    11    31    1
    32    12    32    1
    33    12    33    1
    34    12    34    1
    35    13    14    1
    36    13    15    2
    37    14    35    1
    38    14    36    1
    39    14    37    1
    40    15    38    1
    41    15    39    1
