@<TRIPOS>MOLECULE
IMPHY010682
 72 76 0 0 0
SMALL
GASTEIGER

@<TRIPOS>ATOM
      1 O           9.4819   -2.2980    0.0000 O.3     1  UNL1       -0.3093
      2 O           7.7499   -2.2980    0.0000 O.3     1  UNL1       -0.3404
      3 O          10.3480   -0.7980    0.0000 O.2     1  UNL1       -0.4699
      4 O           9.4819   -4.2980    0.0000 O.3     1  UNL1       -0.3841
      5 O           7.7499   -5.2980    0.0000 O.3     1  UNL1       -0.3864
      6 O           6.0178   -4.2980    0.0000 O.3     1  UNL1       -0.3865
      7 O           5.1518   -2.7980    0.0000 O.3     1  UNL1       -0.3924
      8 O          10.8088    1.8153    0.0000 O.3     1  UNL1       -0.4646
      9 O           9.1812    2.4077    0.0000 O.2     1  UNL1       -0.2452
     10 O           2.6004    3.9259    0.0000 O.3     1  UNL1       -0.5067
     11 O           7.9812    5.1270    0.0000 O.3     1  UNL1       -0.4761
     12 OXT         9.3251    4.0342    0.0000 O.2     1  UNL1       -0.2434
     13 N           5.6019    1.2018    0.0000 N.ar    1  UNL1       -0.3527
     14 N           8.0743    2.4422    0.0000 N.ar    1  UNL1       -0.2429
     15 C           8.6159   -0.7980    0.0000 C.3     1  UNL1        0.0470
     16 C           8.6159    0.2020    0.0000 C.3     1  UNL1        0.0112
     17 C           8.6159   -2.7980    0.0000 C.3     1  UNL1        0.1918
     18 C           8.6159   -3.7980    0.0000 C.3     1  UNL1        0.1342
     19 C           9.4819   -1.2980    0.0000 C.3     1  UNL1        0.2102
     20 C           7.7499   -4.2980    0.0000 C.3     1  UNL1        0.1141
     21 C           6.8839   -3.7980    0.0000 C.3     1  UNL1        0.1119
     22 C           6.8839   -2.7980    0.0000 C.3     1  UNL1        0.1130
     23 C           7.7499    0.7020    0.0000 C.3     1  UNL1       -0.0005
     24 C           9.4819    0.7020    0.0000 C.2     1  UNL1        0.0749
     25 C           7.7499   -1.2980    0.0000 C.2     1  UNL1       -0.0816
     26 C           6.0178   -2.2980    0.0000 C.3     1  UNL1        0.0730
     27 C           7.4079    1.6417    0.0000 C.ar    1  UNL1        0.0666
     28 C          10.3480    0.2020    0.0000 C.2     1  UNL1        0.0981
     29 C           6.3828    1.8265    0.0000 C.ar    1  UNL1        0.0691
     30 C           9.8240    1.6417    0.0000 C.2     1  UNL1        0.3381
     31 C           6.0299    2.7622    0.0000 C.ar    1  UNL1        0.0115
     32 C           5.0310    2.7157    0.0000 C.ar    1  UNL1        0.0110
     33 C           6.8839   -0.7980    0.0000 C.2     1  UNL1       -0.1022
     34 C           4.7665    1.7513    0.0000 C.ar    1  UNL1        0.0477
     35 C           6.6777    3.5779    0.0000 C.ar    1  UNL1       -0.0195
     36 CA          7.7068    3.4168    0.0000 C.ar    1  UNL1        0.1484
     37 C           4.3103    3.4678    0.0000 C.ar    1  UNL1       -0.0104
     38 C           3.7630    1.4722    0.0000 C.ar    1  UNL1       -0.0343
     39 C           3.3006    3.2119    0.0000 C.ar    1  UNL1        0.1176
     40 C           3.0251    2.2074    0.0000 C.ar    1  UNL1       -0.0182
     41 C           8.3377    4.1927    0.0000 C.2     1  UNL1        0.3553
     42 C          11.4516    1.0493    0.0000 C.3     1  UNL1        0.0820
     43 H           8.0790   -0.4880    0.0000 H       1  UNL1        0.0410
     44 H           8.6159    0.8220    0.0000 H       1  UNL1        0.0363
     45 H           9.1529   -3.1080    0.0000 H       1  UNL1        0.0939
     46 H           8.6159   -4.4180    0.0000 H       1  UNL1        0.0671
     47 H           8.9450   -1.6080    0.0000 H       1  UNL1        0.1062
     48 H           7.2130   -4.6080    0.0000 H       1  UNL1        0.0648
     49 H           6.3469   -3.4880    0.0000 H       1  UNL1        0.0647
     50 H           6.8839   -2.1780    0.0000 H       1  UNL1        0.0647
     51 H           7.1309    0.6659    0.0000 H       1  UNL1        0.0335
     52 H           7.6069    0.0987    0.0000 H       1  UNL1        0.0335
     53 H           7.7499   -1.9180    0.0000 H       1  UNL1        0.0571
     54 H           6.4164   -1.8231    0.0000 H       1  UNL1        0.0584
     55 H           5.6193   -1.8231    0.0000 H       1  UNL1        0.0584
     56 H          10.8849    0.5120    0.0000 H       1  UNL1        0.1029
     57 H          10.0189   -3.9880    0.0000 H       1  UNL1        0.2101
     58 H           8.2868   -5.6080    0.0000 H       1  UNL1        0.2100
     59 H           6.0178   -4.9180    0.0000 H       1  UNL1        0.2100
     60 H           5.6307    0.5824    0.0000 H       1  UNL1        0.1660
     61 H           6.8839   -0.1780    0.0000 H       1  UNL1        0.0532
     62 H           6.3469   -1.1080    0.0000 H       1  UNL1        0.0532
     63 H           6.4522    4.1554    0.0000 H       1  UNL1        0.0648
     64 H           4.6149   -2.4880    0.0000 H       1  UNL1        0.2095
     65 H           4.4812    4.0638    0.0000 H       1  UNL1        0.0661
     66 H           3.6059    0.8724    0.0000 H       1  UNL1        0.0639
     67 H           2.4259    2.0481    0.0000 H       1  UNL1        0.0655
     68 H          10.9766    0.6507    0.0000 H       1  UNL1        0.0661
     69 H          11.8501    0.5743    0.0000 H       1  UNL1        0.0661
     70 H          11.9265    1.4478    0.0000 H       1  UNL1        0.0661
     71 H           2.0000    3.7712    0.0000 H       1  UNL1        0.2921
     72 H           8.3724    5.6080    0.0000 H       1  UNL1        0.2955
@<TRIPOS>BOND
     1    17     1    1
     2    19     1    1
     3     2    17    1
     4     2    22    1
     5     3    19    1
     6     3    28    1
     7    18     4    1
     8     4    57    1
     9    20     5    1
    10     5    58    1
    11    21     6    1
    12     6    59    1
    13     7    26    1
    14     7    64    1
    15     8    30    1
    16     8    42    1
    17     9    30    2
    18    10    39    1
    19    10    71    1
    20    11    41    1
    21    11    72    1
    22    12    41    2
    23    13    29   ar
    24    13    34   ar
    25    13    60    1
    26    14    27   ar
    27    14    36   ar
    28    15    16    1
    29    15    19    1
    30    15    25    1
    31    15    43    1
    32    16    23    1
    33    16    24    1
    34    16    44    1
    35    17    18    1
    36    17    45    1
    37    18    20    1
    38    18    46    1
    39    19    47    1
    40    20    21    1
    41    20    48    1
    42    21    22    1
    43    21    49    1
    44    22    26    1
    45    22    50    1
    46    23    27    1
    47    23    51    1
    48    23    52    1
    49    24    28    2
    50    24    30    1
    51    25    33    2
    52    25    53    1
    53    26    54    1
    54    26    55    1
    55    27    29   ar
    56    28    56    1
    57    29    31   ar
    58    31    32   ar
    59    31    35   ar
    60    32    34   ar
    61    32    37   ar
    62    33    61    1
    63    33    62    1
    64    34    38   ar
    65    35    36   ar
    66    35    63    1
    67    36    41    1
    68    37    39   ar
    69    37    65    1
    70    38    40   ar
    71    38    66    1
    72    39    40   ar
    73    40    67    1
    74    42    68    1
    75    42    69    1
    76    42    70    1
