@<TRIPOS>MOLECULE
IMPHY012410
 215 226 0 0 0
SMALL
GASTEIGER

@<TRIPOS>ATOM
      1 O           9.4651   -1.4946    0.0000 O.3     1  UNL1       -0.3449
      2 O           9.4251    8.8987    0.0000 O.3     1  UNL1       -0.3912
      3 O          11.2189    7.7848    0.0000 O.3     1  UNL1       -0.4318
      4 O          12.1023    6.2949    0.0000 O.2     1  UNL1       -0.2501
      5 O           7.7331   -1.4946    0.0000 O.3     1  UNL1       -0.3405
      6 O           9.4651   -3.4946    0.0000 O.3     1  UNL1       -0.3378
      7 O          12.0676    9.2947    0.0000 O.3     1  UNL1       -0.3338
      8 O           7.7331   -4.4946    0.0000 O.3     1  UNL1       -0.3864
      9 O           6.0010   -3.4946    0.0000 O.3     1  UNL1       -0.3402
     10 O          12.9624    6.8049    0.0000 O.3     1  UNL1       -0.3829
     11 O          14.6828    7.8249    0.0000 O.3     1  UNL1       -0.3864
     12 O           8.5991   -4.9946    0.0000 O.3     1  UNL1       -0.3460
     13 O           6.0010   -0.4946    0.0000 O.3     1  UNL1       -0.3924
     14 O          14.6597    9.8247    0.0000 O.3     1  UNL1       -0.3866
     15 O           5.1350   -1.9946    0.0000 O.3     1  UNL1       -0.3461
     16 O          11.1972   -4.4946    0.0000 O.3     1  UNL1       -0.3841
     17 O          11.1972   -6.4946    0.0000 O.3     1  UNL1       -0.3400
     18 O           9.4651   -7.4946    0.0000 O.3     1  UNL1       -0.3405
     19 O           4.2690   -4.4946    0.0000 O.3     1  UNL1       -0.3841
     20 O           2.5369   -3.4946    0.0000 O.3     1  UNL1       -0.3864
     21 O           2.5369   -1.4946    0.0000 O.3     1  UNL1       -0.3869
     22 O          12.0632   -4.9946    0.0000 O.3     1  UNL1       -0.3405
     23 O           7.7331   -7.4946    0.0000 O.3     1  UNL1       -0.3461
     24 O          12.9292   -7.4946    0.0000 O.3     1  UNL1       -0.3378
     25 O           9.4651   -9.4946    0.0000 O.3     1  UNL1       -0.3841
     26 O          14.6613   -6.4946    0.0000 O.3     1  UNL1       -0.3864
     27 O          14.6613   -4.4946    0.0000 O.3     1  UNL1       -0.3865
     28 O           7.7331  -10.4946    0.0000 O.3     1  UNL1       -0.3864
     29 O           6.0010   -9.4946    0.0000 O.3     1  UNL1       -0.3869
     30 O          14.6613   -7.4946    0.0000 O.3     1  UNL1       -0.3431
     31 O          13.7953   -2.9946    0.0000 O.3     1  UNL1       -0.3924
     32 O          12.9292   -9.4946    0.0000 O.3     1  UNL1       -0.3841
     33 O          14.6613  -10.4946    0.0000 O.3     1  UNL1       -0.3864
     34 O          16.3933   -9.4946    0.0000 O.3     1  UNL1       -0.3866
     35 C          10.3662    3.2056    0.0000 C.3     1  UNL1       -0.0194
     36 C           9.5021    2.7023    0.0000 C.3     1  UNL1       -0.0257
     37 C           9.4901    1.6607    0.0000 C.3     1  UNL1       -0.0250
     38 C          10.3623    4.2056    0.0000 C.3     1  UNL1       -0.0051
     39 C          10.3901    1.1364    0.0000 C.3     1  UNL1       -0.0278
     40 C          11.2781    2.7023    0.0000 C.3     1  UNL1       -0.0463
     41 C          10.4027    0.0515    0.0000 C.3     1  UNL1       -0.0052
     42 C          11.2902    1.6607    0.0000 C.3     1  UNL1       -0.0486
     43 C           9.4944    4.7022    0.0000 C.2     1  UNL1       -0.0629
     44 C           9.4743    5.7437    0.0000 C.3     1  UNL1       -0.0030
     45 C           8.6342    3.1989    0.0000 C.3     1  UNL1       -0.0306
     46 C           8.5402    1.1364    0.0000 C.3     1  UNL1       -0.0447
     47 C          11.2704    4.7159    0.0000 C.3     1  UNL1       -0.0424
     48 C          10.3703    6.2749    0.0000 C.3     1  UNL1        0.0767
     49 C          11.3503    3.3830    0.0000 C.3     1  UNL1       -0.0585
     50 C           9.4651   -0.4946    0.0000 C.3     1  UNL1        0.0672
     51 C          11.2744    5.7576    0.0000 C.3     1  UNL1       -0.0358
     52 C           8.6260    2.1640    0.0000 C.3     1  UNL1       -0.0590
     53 C           8.6303    4.1989    0.0000 C.2     1  UNL1       -0.0836
     54 C           8.5276    0.0515    0.0000 C.3     1  UNL1       -0.0255
     55 C          11.3478    4.0357    0.0000 C.3     1  UNL1       -0.0553
     56 C           8.5204    6.2606    0.0000 C.3     1  UNL1       -0.0379
     57 C          10.3745    7.3599    0.0000 C.3     1  UNL1       -0.0100
     58 C           8.4995    7.3454    0.0000 C.3     1  UNL1       -0.0083
     59 C          11.4026    0.0592    0.0000 C.3     1  UNL1       -0.0572
     60 C          10.9093   -0.8107    0.0000 C.3     1  UNL1       -0.0572
     61 C           9.4328    7.8988    0.0000 C.3     1  UNL1        0.0614
     62 C          11.2305    6.7849    0.0000 C.2     1  UNL1        0.3162
     63 C           7.9862    8.2036    0.0000 C.3     1  UNL1       -0.0574
     64 C           7.4996    7.3300    0.0000 C.3     1  UNL1       -0.0574
     65 C           8.5991   -1.9946    0.0000 C.3     1  UNL1        0.1886
     66 C           8.5991   -2.9946    0.0000 C.3     1  UNL1        0.1406
     67 C          12.0791    8.2948    0.0000 C.3     1  UNL1        0.2337
     68 C           7.7331   -3.4946    0.0000 C.3     1  UNL1        0.1148
     69 C           6.8671   -1.9946    0.0000 C.3     1  UNL1        0.1134
     70 C           6.8671   -2.9946    0.0000 C.3     1  UNL1        0.1184
     71 C          12.9509    7.8048    0.0000 C.3     1  UNL1        0.1455
     72 C          13.8111    8.3148    0.0000 C.3     1  UNL1        0.1151
     73 C           6.0010   -1.4946    0.0000 C.3     1  UNL1        0.0730
     74 C          12.9278    9.8047    0.0000 C.3     1  UNL1        0.0883
     75 C          13.7995    9.3148    0.0000 C.3     1  UNL1        0.1096
     76 C           9.4651   -4.4946    0.0000 C.3     1  UNL1        0.1881
     77 C          10.3312   -4.9946    0.0000 C.3     1  UNL1        0.1345
     78 C          12.9162   10.8046    0.0000 C.3     1  UNL1       -0.0360
     79 C           5.1350   -2.9946    0.0000 C.3     1  UNL1        0.1880
     80 C          10.3312   -5.9946    0.0000 C.3     1  UNL1        0.1206
     81 C           4.2690   -3.4946    0.0000 C.3     1  UNL1        0.1341
     82 C           8.5991   -5.9946    0.0000 C.3     1  UNL1        0.0796
     83 C           9.4651   -6.4946    0.0000 C.3     1  UNL1        0.1138
     84 C           3.4030   -2.9946    0.0000 C.3     1  UNL1        0.1137
     85 C           4.2690   -1.4946    0.0000 C.3     1  UNL1        0.0792
     86 C           3.4030   -1.9946    0.0000 C.3     1  UNL1        0.1069
     87 C          12.0632   -5.9946    0.0000 C.3     1  UNL1        0.1888
     88 C           8.5991   -7.9946    0.0000 C.3     1  UNL1        0.1880
     89 C          12.9292   -6.4946    0.0000 C.3     1  UNL1        0.1406
     90 C           8.5991   -8.9946    0.0000 C.3     1  UNL1        0.1341
     91 C          13.7953   -5.9946    0.0000 C.3     1  UNL1        0.1144
     92 C          12.9292   -4.4946    0.0000 C.3     1  UNL1        0.1130
     93 C          13.7953   -4.9946    0.0000 C.3     1  UNL1        0.1119
     94 C           7.7331   -9.4946    0.0000 C.3     1  UNL1        0.1137
     95 C           6.8671   -7.9946    0.0000 C.3     1  UNL1        0.0792
     96 C           6.8671   -8.9946    0.0000 C.3     1  UNL1        0.1069
     97 C          12.9292   -3.4946    0.0000 C.3     1  UNL1        0.0730
     98 C          13.7953   -7.9946    0.0000 C.3     1  UNL1        0.1884
     99 C          13.7953   -8.9946    0.0000 C.3     1  UNL1        0.1341
    100 C          14.6613   -9.4946    0.0000 C.3     1  UNL1        0.1140
    101 C          15.5273   -7.9946    0.0000 C.3     1  UNL1        0.0873
    102 C          15.5273   -8.9946    0.0000 C.3     1  UNL1        0.1095
    103 C          16.3933   -7.4946    0.0000 C.3     1  UNL1       -0.0361
    104 H          10.0378    2.3902    0.0000 H       1  UNL1        0.0315
    105 H          10.9294    0.8306    0.0000 H       1  UNL1        0.0312
    106 H          11.8902    2.6032    0.0000 H       1  UNL1        0.0271
    107 H          11.4804    3.2883    0.0000 H       1  UNL1        0.0271
    108 H          11.5060    1.0795    0.0000 H       1  UNL1        0.0268
    109 H          11.8998    1.7738    0.0000 H       1  UNL1        0.0268
    110 H           8.9447    5.4213    0.0000 H       1  UNL1        0.0357
    111 H           8.0232    3.3042    0.0000 H       1  UNL1        0.0310
    112 H           8.4244    2.6155    0.0000 H       1  UNL1        0.0310
    113 H           8.3379    1.7225    0.0000 H       1  UNL1        0.0271
    114 H           7.9281    1.0374    0.0000 H       1  UNL1        0.0271
    115 H          11.4772    4.1314    0.0000 H       1  UNL1        0.0274
    116 H          11.8816    4.8197    0.0000 H       1  UNL1        0.0274
    117 H          11.4603    2.7729    0.0000 H       1  UNL1        0.0235
    118 H          11.9605    3.4930    0.0000 H       1  UNL1        0.0235
    119 H          11.2403    3.9932    0.0000 H       1  UNL1        0.0235
    120 H          10.0027   -0.8036    0.0000 H       1  UNL1        0.0602
    121 H          11.8848    5.6491    0.0000 H       1  UNL1        0.0276
    122 H          11.4857    6.3404    0.0000 H       1  UNL1        0.0276
    123 H           8.9380    2.6998    0.0000 H       1  UNL1        0.0235
    124 H           8.0902    2.4761    0.0000 H       1  UNL1        0.0235
    125 H           8.3139    1.6283    0.0000 H       1  UNL1        0.0235
    126 H           8.0922    4.5068    0.0000 H       1  UNL1        0.0572
    127 H           7.9180    0.1646    0.0000 H       1  UNL1        0.0290
    128 H           8.3118   -0.5298    0.0000 H       1  UNL1        0.0290
    129 H          11.2425    3.4247    0.0000 H       1  UNL1        0.0238
    130 H          11.9588    3.9304    0.0000 H       1  UNL1        0.0238
    131 H          11.4531    4.6467    0.0000 H       1  UNL1        0.0238
    132 H           7.9076    6.3549    0.0000 H       1  UNL1        0.0277
    133 H           8.3226    5.6730    0.0000 H       1  UNL1        0.0277
    134 H          10.9849    7.2514    0.0000 H       1  UNL1        0.0301
    135 H          10.5858    7.9428    0.0000 H       1  UNL1        0.0301
    136 H          11.4074   -0.5608    0.0000 H       1  UNL1        0.0236
    137 H          12.0226    0.0640    0.0000 H       1  UNL1        0.0236
    138 H          11.3979    0.6792    0.0000 H       1  UNL1        0.0236
    139 H          10.3748   -1.1248    0.0000 H       1  UNL1        0.0236
    140 H          11.2235   -1.3452    0.0000 H       1  UNL1        0.0236
    141 H          11.4439   -0.4965    0.0000 H       1  UNL1        0.0236
    142 H           8.8929    8.2036    0.0000 H       1  UNL1        0.0599
    143 H           8.5183    8.5219    0.0000 H       1  UNL1        0.0236
    144 H           7.6680    8.7357    0.0000 H       1  UNL1        0.0236
    145 H           7.4541    7.8854    0.0000 H       1  UNL1        0.0236
    146 H           7.4900    7.9499    0.0000 H       1  UNL1        0.0236
    147 H           6.8797    7.3204    0.0000 H       1  UNL1        0.0236
    148 H           7.5092    6.7101    0.0000 H       1  UNL1        0.0236
    149 H           8.5991   -1.3746    0.0000 H       1  UNL1        0.0938
    150 H           9.9596    9.2128    0.0000 H       1  UNL1        0.2098
    151 H           8.5991   -3.6146    0.0000 H       1  UNL1        0.0675
    152 H          12.0863    7.6748    0.0000 H       1  UNL1        0.1085
    153 H           7.1962   -3.8046    0.0000 H       1  UNL1        0.0648
    154 H           6.8671   -1.3746    0.0000 H       1  UNL1        0.0647
    155 H           6.3301   -2.6846    0.0000 H       1  UNL1        0.0651
    156 H          13.4914    7.5011    0.0000 H       1  UNL1        0.0683
    157 H          13.8182    7.6948    0.0000 H       1  UNL1        0.0648
    158 H           5.3905   -1.3870    0.0000 H       1  UNL1        0.0584
    159 H           5.7890   -2.0772    0.0000 H       1  UNL1        0.0584
    160 H          12.3873   10.1085    0.0000 H       1  UNL1        0.0621
    161 H          14.3400    9.0110    0.0000 H       1  UNL1        0.0646
    162 H          10.0021   -4.1846    0.0000 H       1  UNL1        0.0937
    163 H           7.1962   -4.8046    0.0000 H       1  UNL1        0.2100
    164 H          13.5029    6.5011    0.0000 H       1  UNL1        0.2102
    165 H          10.8681   -5.3046    0.0000 H       1  UNL1        0.0671
    166 H          13.5361   10.8118    0.0000 H       1  UNL1        0.0255
    167 H          12.9090   11.4246    0.0000 H       1  UNL1        0.0255
    168 H          12.2962   10.7975    0.0000 H       1  UNL1        0.0255
    169 H           5.1350   -3.6146    0.0000 H       1  UNL1        0.0937
    170 H          15.2161    8.1410    0.0000 H       1  UNL1        0.2100
    171 H           5.4641   -0.1846    0.0000 H       1  UNL1        0.2095
    172 H          10.3312   -6.6146    0.0000 H       1  UNL1        0.0651
    173 H          14.6525   10.4447    0.0000 H       1  UNL1        0.2100
    174 H           3.7320   -3.8046    0.0000 H       1  UNL1        0.0671
    175 H           7.9885   -5.8870    0.0000 H       1  UNL1        0.0587
    176 H           8.3871   -6.5772    0.0000 H       1  UNL1        0.0587
    177 H           8.9282   -6.8046    0.0000 H       1  UNL1        0.0647
    178 H          11.1972   -3.8746    0.0000 H       1  UNL1        0.2101
    179 H           2.8660   -2.6846    0.0000 H       1  UNL1        0.0647
    180 H           4.6675   -1.0197    0.0000 H       1  UNL1        0.0587
    181 H           3.8705   -1.0197    0.0000 H       1  UNL1        0.0587
    182 H           3.4030   -1.3746    0.0000 H       1  UNL1        0.0643
    183 H           3.7320   -4.8046    0.0000 H       1  UNL1        0.2101
    184 H          11.5263   -5.6846    0.0000 H       1  UNL1        0.0938
    185 H           8.5991   -7.3746    0.0000 H       1  UNL1        0.0937
    186 H           2.0000   -3.1846    0.0000 H       1  UNL1        0.2100
    187 H          12.3923   -6.8046    0.0000 H       1  UNL1        0.0675
    188 H           2.5369   -0.8746    0.0000 H       1  UNL1        0.2100
    189 H           8.5991   -9.6146    0.0000 H       1  UNL1        0.0671
    190 H          13.7953   -6.6146    0.0000 H       1  UNL1        0.0648
    191 H          12.3923   -4.1846    0.0000 H       1  UNL1        0.0647
    192 H          14.3322   -5.3046    0.0000 H       1  UNL1        0.0647
    193 H           7.1962   -9.8046    0.0000 H       1  UNL1        0.0647
    194 H           6.6550   -7.4120    0.0000 H       1  UNL1        0.0587
    195 H           6.2565   -8.1023    0.0000 H       1  UNL1        0.0587
    196 H           6.3301   -8.6846    0.0000 H       1  UNL1        0.0643
    197 H          12.7172   -2.9120    0.0000 H       1  UNL1        0.0584
    198 H          12.3187   -3.6023    0.0000 H       1  UNL1        0.0584
    199 H           9.4651  -10.1146    0.0000 H       1  UNL1        0.2101
    200 H          13.7953   -7.3746    0.0000 H       1  UNL1        0.0938
    201 H          15.1982   -6.1846    0.0000 H       1  UNL1        0.2100
    202 H          15.1982   -4.8046    0.0000 H       1  UNL1        0.2100
    203 H           7.1962  -10.8046    0.0000 H       1  UNL1        0.2100
    204 H          13.7953   -9.6146    0.0000 H       1  UNL1        0.0671
    205 H           5.4641   -9.1846    0.0000 H       1  UNL1        0.2100
    206 H          13.7953   -2.3746    0.0000 H       1  UNL1        0.2095
    207 H          15.1982   -9.8046    0.0000 H       1  UNL1        0.0648
    208 H          15.5273   -7.3746    0.0000 H       1  UNL1        0.0621
    209 H          15.5273   -9.6146    0.0000 H       1  UNL1        0.0646
    210 H          12.9292  -10.1146    0.0000 H       1  UNL1        0.2101
    211 H          16.7033   -8.0316    0.0000 H       1  UNL1        0.0255
    212 H          16.9303   -7.1846    0.0000 H       1  UNL1        0.0255
    213 H          16.0833   -6.9577    0.0000 H       1  UNL1        0.0255
    214 H          15.1982  -10.8046    0.0000 H       1  UNL1        0.2100
    215 H          16.9303   -9.1846    0.0000 H       1  UNL1        0.2100
@<TRIPOS>BOND
     1     1    50    1
     2     1    65    1
     3     2    61    1
     4     2   150    1
     5     3    62    1
     6     3    67    1
     7     4    62    2
     8     5    65    1
     9     5    69    1
    10     6    66    1
    11     6    76    1
    12     7    67    1
    13     7    74    1
    14     8    68    1
    15     8   163    1
    16     9    70    1
    17     9    79    1
    18    10    71    1
    19    10   164    1
    20    11    72    1
    21    11   170    1
    22    12    76    1
    23    12    82    1
    24    13    73    1
    25    13   171    1
    26    14    75    1
    27    14   173    1
    28    15    79    1
    29    15    85    1
    30    16    77    1
    31    16   178    1
    32    17    80    1
    33    17    87    1
    34    18    83    1
    35    18    88    1
    36    19    81    1
    37    19   183    1
    38    20    84    1
    39    20   186    1
    40    21    86    1
    41    21   188    1
    42    22    87    1
    43    22    92    1
    44    23    88    1
    45    23    95    1
    46    24    89    1
    47    24    98    1
    48    25    90    1
    49    25   199    1
    50    26    91    1
    51    26   201    1
    52    27    93    1
    53    27   202    1
    54    28    94    1
    55    28   203    1
    56    29    96    1
    57    29   205    1
    58    30    98    1
    59    30   101    1
    60    31    97    1
    61    31   206    1
    62    32    99    1
    63    32   210    1
    64    33   100    1
    65    33   214    1
    66    34   102    1
    67    34   215    1
    68    35    36    1
    69    35    38    1
    70    35    40    1
    71    35    49    1
    72    36    37    1
    73    36    45    1
    74    36   104    1
    75    37    39    1
    76    37    46    1
    77    37    52    1
    78    38    43    1
    79    38    47    1
    80    38    55    1
    81    39    41    1
    82    39    42    1
    83    39   105    1
    84    40    42    1
    85    40   106    1
    86    40   107    1
    87    41    50    1
    88    41    59    1
    89    41    60    1
    90    42   108    1
    91    42   109    1
    92    43    44    1
    93    43    53    2
    94    44    48    1
    95    44    56    1
    96    44   110    1
    97    45    53    1
    98    45   111    1
    99    45   112    1
   100    46    54    1
   101    46   113    1
   102    46   114    1
   103    47    51    1
   104    47   115    1
   105    47   116    1
   106    48    51    1
   107    48    57    1
   108    48    62    1
   109    49   117    1
   110    49   118    1
   111    49   119    1
   112    50    54    1
   113    50   120    1
   114    51   121    1
   115    51   122    1
   116    52   123    1
   117    52   124    1
   118    52   125    1
   119    53   126    1
   120    54   127    1
   121    54   128    1
   122    55   129    1
   123    55   130    1
   124    55   131    1
   125    56    58    1
   126    56   132    1
   127    56   133    1
   128    57    61    1
   129    57   134    1
   130    57   135    1
   131    58    61    1
   132    58    63    1
   133    58    64    1
   134    59   136    1
   135    59   137    1
   136    59   138    1
   137    60   139    1
   138    60   140    1
   139    60   141    1
   140    61   142    1
   141    63   143    1
   142    63   144    1
   143    63   145    1
   144    64   146    1
   145    64   147    1
   146    64   148    1
   147    65    66    1
   148    65   149    1
   149    66    68    1
   150    66   151    1
   151    67    71    1
   152    67   152    1
   153    68    70    1
   154    68   153    1
   155    69    70    1
   156    69    73    1
   157    69   154    1
   158    70   155    1
   159    71    72    1
   160    71   156    1
   161    72    75    1
   162    72   157    1
   163    73   158    1
   164    73   159    1
   165    74    75    1
   166    74    78    1
   167    74   160    1
   168    75   161    1
   169    76    77    1
   170    76   162    1
   171    77    80    1
   172    77   165    1
   173    78   166    1
   174    78   167    1
   175    78   168    1
   176    79    81    1
   177    79   169    1
   178    80    83    1
   179    80   172    1
   180    81    84    1
   181    81   174    1
   182    82    83    1
   183    82   175    1
   184    82   176    1
   185    83   177    1
   186    84    86    1
   187    84   179    1
   188    85    86    1
   189    85   180    1
   190    85   181    1
   191    86   182    1
   192    87    89    1
   193    87   184    1
   194    88    90    1
   195    88   185    1
   196    89    91    1
   197    89   187    1
   198    90    94    1
   199    90   189    1
   200    91    93    1
   201    91   190    1
   202    92    93    1
   203    92    97    1
   204    92   191    1
   205    93   192    1
   206    94    96    1
   207    94   193    1
   208    95    96    1
   209    95   194    1
   210    95   195    1
   211    96   196    1
   212    97   197    1
   213    97   198    1
   214    98    99    1
   215    98   200    1
   216    99   100    1
   217    99   204    1
   218   100   102    1
   219   100   207    1
   220   101   102    1
   221   101   103    1
   222   101   208    1
   223   102   209    1
   224   103   211    1
   225   103   212    1
   226   103   213    1
