@<TRIPOS>MOLECULE
IMPHY006516
 22 23 0 0 0
SMALL
GASTEIGER

@<TRIPOS>ATOM
      1 O           8.6793    0.3047    0.0000 O.3     1  UNL1       -0.4526
      2 O           8.6793   -1.3047    0.0000 O.3     1  UNL1       -0.4526
      3 O           2.5369    0.0000    0.0000 O.3     1  UNL1       -0.4775
      4 O           3.4030    1.5000    0.0000 O.2     1  UNL1       -0.2458
      5 C           7.7331    0.0000    0.0000 C.ar    1  UNL1        0.1668
      6 C           7.7331   -1.0000    0.0000 C.ar    1  UNL1        0.1663
      7 C           6.0010    0.0000    0.0000 C.ar    1  UNL1       -0.0211
      8 C           6.8671    0.5000    0.0000 C.ar    1  UNL1       -0.0090
      9 C           6.8671   -1.5000    0.0000 C.ar    1  UNL1       -0.0156
     10 C           9.2629   -0.5000    0.0000 C.3     1  UNL1        0.2332
     11 C           6.0010   -1.0000    0.0000 C.ar    1  UNL1       -0.0509
     12 C           5.1350    0.5000    0.0000 C.2     1  UNL1       -0.0477
     13 C           4.2690    0.0000    0.0000 C.2     1  UNL1        0.0229
     14 C           3.4030    0.5000    0.0000 C.2     1  UNL1        0.3296
     15 H           6.8671    1.1200    0.0000 H       1  UNL1        0.0661
     16 H           6.8671   -2.1200    0.0000 H       1  UNL1        0.0655
     17 H           9.7238   -0.9147    0.0000 H       1  UNL1        0.1166
     18 H           9.7238   -0.0853    0.0000 H       1  UNL1        0.1166
     19 H           5.4641   -1.3100    0.0000 H       1  UNL1        0.0625
     20 H           5.1350    1.1200    0.0000 H       1  UNL1        0.0626
     21 H           4.2690   -0.6200    0.0000 H       1  UNL1        0.0689
     22 H           2.0000    0.3100    0.0000 H       1  UNL1        0.2954
@<TRIPOS>BOND
     1     1     5    1
     2     1    10    1
     3     2     6    1
     4     2    10    1
     5     3    14    1
     6     3    22    1
     7     4    14    2
     8     5     6   ar
     9     5     8   ar
    10     6     9   ar
    11     7     8   ar
    12     7    11   ar
    13     7    12    1
    14     8    15    1
    15     9    11   ar
    16     9    16    1
    17    10    17    1
    18    10    18    1
    19    11    19    1
    20    12    13    2
    21    12    20    1
    22    13    14    1
    23    13    21    1
