@<TRIPOS>MOLECULE
IMPHY009023
 60 65 0 0 0
SMALL
GASTEIGER

@<TRIPOS>ATOM
      1 O           9.2788   -0.8203    0.0000 O.3     1  UNL1       -0.3943
      2 O           5.9721    0.2120    0.0000 O.2     1  UNL1       -0.2900
      3 O          11.8831    1.5882    0.0000 O.3     1  UNL1       -0.4929
      4 O           5.3923   -4.3934    0.0000 O.3     1  UNL1       -0.4929
      5 N           8.6935    2.7169    0.0000 N.ar    1  UNL1       -0.3526
      6 N           4.5274   -1.1224    0.0000 N.ar    1  UNL1       -0.3523
      7 N           9.6080    0.1063    0.0000 N.ar    1  UNL1       -0.2542
      8 N           7.0547   -2.2466    0.0000 N.ar    1  UNL1       -0.2463
      9 C           7.6255   -0.3042    0.0000 C.3     1  UNL1        0.0522
     10 C           7.9235    0.6504    0.0000 C.3     1  UNL1        0.0036
     11 C           8.8991    0.8696    0.0000 C.ar    1  UNL1        0.0661
     12 C           9.2134    1.8627    0.0000 C.ar    1  UNL1        0.0726
     13 C          10.1865    2.0932    0.0000 C.ar    1  UNL1        0.0523
     14 C           6.6498   -0.5234    0.0000 C.2     1  UNL1        0.1888
     15 C           5.3364   -1.7102    0.0000 C.ar    1  UNL1        0.0802
     16 C          10.2680    3.0898    0.0000 C.ar    1  UNL1        0.0110
     17 C           6.3518   -1.4780    0.0000 C.ar    1  UNL1        0.1305
     18 C           8.3031   -1.0395    0.0000 C.3     1  UNL1        0.0544
     19 C           5.0274   -2.6613    0.0000 C.ar    1  UNL1        0.0527
     20 C           9.3452    3.4754    0.0000 C.ar    1  UNL1        0.0476
     21 C           4.0274   -2.6613    0.0000 C.ar    1  UNL1        0.0110
     22 C           3.7183   -1.7102    0.0000 C.ar    1  UNL1        0.0476
     23 C          10.9128    1.3465    0.0000 C.ar    1  UNL1        0.1478
     24 C           5.7123   -3.4460    0.0000 C.ar    1  UNL1        0.1478
     25 C          10.6216    0.3464    0.0000 C.ar    1  UNL1        0.0702
     26 C          11.1059    3.7086    0.0000 C.ar    1  UNL1       -0.0519
     27 C           9.1965    4.5063    0.0000 C.ar    1  UNL1       -0.0378
     28 C           3.3424   -3.4460    0.0000 C.ar    1  UNL1       -0.0519
     29 C           6.7328   -3.2373    0.0000 C.ar    1  UNL1        0.0707
     30 C           2.7029   -1.4780    0.0000 C.ar    1  UNL1       -0.0378
     31 C          10.9811    4.7427    0.0000 C.ar    1  UNL1       -0.0611
     32 C          10.0199    5.1443    0.0000 C.ar    1  UNL1       -0.0598
     33 C           2.3219   -3.2373    0.0000 C.ar    1  UNL1       -0.0611
     34 C           2.0000   -2.2466    0.0000 C.ar    1  UNL1       -0.0598
     35 C          12.5776    0.8687    0.0000 C.3     1  UNL1        0.0789
     36 C           6.0528   -5.1443    0.0000 C.3     1  UNL1        0.0789
     37 H           7.4407   -0.8960    0.0000 H       1  UNL1        0.0408
     38 H           7.8947    1.2697    0.0000 H       1  UNL1        0.0336
     39 H           7.3085    0.7296    0.0000 H       1  UNL1        0.0336
     40 H           7.7812   -1.3742    0.0000 H       1  UNL1        0.0564
     41 H           8.5420   -1.6117    0.0000 H       1  UNL1        0.0564
     42 H           8.0755    2.7675    0.0000 H       1  UNL1        0.1660
     43 H           4.5274   -0.5024    0.0000 H       1  UNL1        0.1660
     44 H          11.0487   -0.1030    0.0000 H       1  UNL1        0.0867
     45 H          11.6752    3.4630    0.0000 H       1  UNL1        0.0624
     46 H           8.6217    4.7387    0.0000 H       1  UNL1        0.0638
     47 H           3.5408   -4.0334    0.0000 H       1  UNL1        0.0624
     48 H           7.1459   -3.6996    0.0000 H       1  UNL1        0.0867
     49 H           2.5182   -0.8861    0.0000 H       1  UNL1        0.0638
     50 H          11.4755    5.1167    0.0000 H       1  UNL1        0.0618
     51 H           9.9385    5.7589    0.0000 H       1  UNL1        0.0618
     52 H           1.9088   -3.6996    0.0000 H       1  UNL1        0.0618
     53 H           9.6990   -1.2763    0.0000 H       1  UNL1        0.2094
     54 H           1.3940   -2.1154    0.0000 H       1  UNL1        0.0618
     55 H          12.1315    0.4382    0.0000 H       1  UNL1        0.0660
     56 H          13.0082    0.4227    0.0000 H       1  UNL1        0.0660
     57 H          13.0237    1.2993    0.0000 H       1  UNL1        0.0660
     58 H           5.5873   -5.5538    0.0000 H       1  UNL1        0.0660
     59 H           6.4623   -5.6098    0.0000 H       1  UNL1        0.0660
     60 H           6.5183   -4.7348    0.0000 H       1  UNL1        0.0660
@<TRIPOS>BOND
     1     1    18    1
     2     1    53    1
     3     2    14    2
     4     3    23    1
     5     3    35    1
     6     4    24    1
     7     4    36    1
     8     5    12   ar
     9     5    20   ar
    10     5    42    1
    11     6    15   ar
    12     6    22   ar
    13     6    43    1
    14     7    11   ar
    15     7    25   ar
    16     8    17   ar
    17     8    29   ar
    18     9    10    1
    19     9    14    1
    20     9    18    1
    21     9    37    1
    22    10    11    1
    23    10    38    1
    24    10    39    1
    25    11    12   ar
    26    12    13   ar
    27    13    16   ar
    28    13    23   ar
    29    14    17    1
    30    15    17   ar
    31    15    19   ar
    32    16    20   ar
    33    16    26   ar
    34    18    40    1
    35    18    41    1
    36    19    21   ar
    37    19    24   ar
    38    20    27   ar
    39    21    22   ar
    40    21    28   ar
    41    22    30   ar
    42    23    25   ar
    43    24    29   ar
    44    25    44    1
    45    26    31   ar
    46    26    45    1
    47    27    32   ar
    48    27    46    1
    49    28    33   ar
    50    28    47    1
    51    29    48    1
    52    30    34   ar
    53    30    49    1
    54    31    32   ar
    55    31    50    1
    56    32    51    1
    57    33    34   ar
    58    33    52    1
    59    34    54    1
    60    35    55    1
    61    35    56    1
    62    35    57    1
    63    36    58    1
    64    36    59    1
    65    36    60    1
