@<TRIPOS>MOLECULE
IMPHY000965
 38 39 0 0 0
SMALL
GASTEIGER

@<TRIPOS>ATOM
      1 O           2.0000   -0.1751    0.0000 O.2     1  UNL1       -0.2927
      2 C           5.0000   -0.1751    0.0000 C.3     1  UNL1       -0.0012
      3 C           4.5000   -1.0412    0.0000 C.3     1  UNL1       -0.0272
      4 C           5.5878   -0.9841    0.0000 C.3     1  UNL1       -0.0394
      5 C           5.5878    0.6339    0.0000 C.3     1  UNL1       -0.0219
      6 C           6.5388   -0.6751    0.0000 C.3     1  UNL1       -0.0307
      7 C           4.5000    0.6909    0.0000 C.2     1  UNL1       -0.0626
      8 C           6.5388    0.3249    0.0000 C.2     1  UNL1       -0.0700
      9 C           3.5000   -1.0412    0.0000 C.3     1  UNL1        0.0132
     10 C           5.0000   -1.9072    0.0000 C.3     1  UNL1       -0.0612
     11 C           3.5000    0.6909    0.0000 C.2     1  UNL1       -0.0197
     12 C           3.0000   -0.1751    0.0000 C.2     1  UNL1        0.1563
     13 C           7.3479    0.9127    0.0000 C.2     1  UNL1       -0.0764
     14 C           5.0000    1.5569    0.0000 C.3     1  UNL1       -0.0428
     15 C           8.2614    0.5059    0.0000 C.3     1  UNL1       -0.0438
     16 C           7.2433    1.9072    0.0000 C.3     1  UNL1       -0.0438
     17 H           5.1200   -1.0412    0.0000 H       1  UNL1        0.0311
     18 H           5.0508   -1.2942    0.0000 H       1  UNL1        0.0277
     19 H           5.8400   -1.5505    0.0000 H       1  UNL1        0.0277
     20 H           5.8400    1.2003    0.0000 H       1  UNL1        0.0319
     21 H           5.0508    0.9439    0.0000 H       1  UNL1        0.0319
     22 H           6.6678   -1.2816    0.0000 H       1  UNL1        0.0310
     23 H           7.1554   -0.6103    0.0000 H       1  UNL1        0.0310
     24 H           2.9174   -1.2532    0.0000 H       1  UNL1        0.0348
     25 H           3.6077   -1.6517    0.0000 H       1  UNL1        0.0348
     26 H           4.4631   -2.2172    0.0000 H       1  UNL1        0.0233
     27 H           5.3100   -2.4441    0.0000 H       1  UNL1        0.0233
     28 H           5.5369   -1.5972    0.0000 H       1  UNL1        0.0233
     29 H           3.1900    1.2278    0.0000 H       1  UNL1        0.0652
     30 H           5.5369    1.2469    0.0000 H       1  UNL1        0.0275
     31 H           5.3100    2.0939    0.0000 H       1  UNL1        0.0275
     32 H           4.4631    1.8669    0.0000 H       1  UNL1        0.0275
     33 H           8.0092   -0.0605    0.0000 H       1  UNL1        0.0274
     34 H           8.8278    0.2537    0.0000 H       1  UNL1        0.0274
     35 H           8.5136    1.0723    0.0000 H       1  UNL1        0.0274
     36 H           7.8599    1.9720    0.0000 H       1  UNL1        0.0274
     37 H           7.1785    2.5238    0.0000 H       1  UNL1        0.0274
     38 H           6.6267    1.8424    0.0000 H       1  UNL1        0.0274
@<TRIPOS>BOND
     1     1    12    2
     2     2     3    1
     3     2     4    1
     4     2     5    1
     5     2     7    1
     6     3     9    1
     7     3    10    1
     8     3    17    1
     9     4     6    1
    10     4    18    1
    11     4    19    1
    12     5     8    1
    13     5    20    1
    14     5    21    1
    15     6     8    1
    16     6    22    1
    17     6    23    1
    18     7    11    2
    19     7    14    1
    20     8    13    2
    21     9    12    1
    22     9    24    1
    23     9    25    1
    24    10    26    1
    25    10    27    1
    26    10    28    1
    27    11    12    1
    28    11    29    1
    29    13    15    1
    30    13    16    1
    31    14    30    1
    32    14    31    1
    33    14    32    1
    34    15    33    1
    35    15    34    1
    36    15    35    1
    37    16    36    1
    38    16    37    1
    39    16    38    1
