@<TRIPOS>MOLECULE
IMPHY004112
 33 35 0 0 0
SMALL
GASTEIGER

@<TRIPOS>ATOM
      1 O           6.0682   -0.0950    0.0000 O.3     1  UNL1       -0.4804
      2 O           7.8003    1.9050    0.0000 O.3     1  UNL1       -0.3798
      3 O           6.0682    2.9050    0.0000 O.2     1  UNL1       -0.2890
      4 O           8.6663   -2.5950    0.0000 O.3     1  UNL1       -0.5033
      5 O           2.5381   -0.1192    0.0000 O.3     1  UNL1       -0.5066
      6 O          10.3984   -1.5950    0.0000 O.3     1  UNL1       -0.5033
      7 C           6.9343    0.4050    0.0000 C.3     1  UNL1        0.1582
      8 C           6.9343    1.4050    0.0000 C.3     1  UNL1        0.1583
      9 C           7.8003   -0.0950    0.0000 C.ar    1  UNL1       -0.0007
     10 C           6.0682    1.9050    0.0000 C.2     1  UNL1        0.1988
     11 C           5.2022    1.4050    0.0000 C.ar    1  UNL1        0.0620
     12 C           5.2022    0.4050    0.0000 C.ar    1  UNL1        0.1355
     13 C           7.8003   -1.0950    0.0000 C.ar    1  UNL1       -0.0098
     14 C           8.6663    0.4050    0.0000 C.ar    1  UNL1       -0.0513
     15 C           4.3083    1.9397    0.0000 C.ar    1  UNL1       -0.0442
     16 C           4.3083   -0.1297    0.0000 C.ar    1  UNL1        0.0223
     17 C           8.6663   -1.5950    0.0000 C.ar    1  UNL1        0.1586
     18 C           3.4022    0.3842    0.0000 C.ar    1  UNL1        0.1204
     19 C           3.4022    1.4258    0.0000 C.ar    1  UNL1       -0.0193
     20 C           9.5323   -0.0950    0.0000 C.ar    1  UNL1       -0.0162
     21 C           9.5323   -1.0950    0.0000 C.ar    1  UNL1        0.1582
     22 H           6.9343   -0.2150    0.0000 H       1  UNL1        0.0815
     23 H           6.9343    2.0250    0.0000 H       1  UNL1        0.0718
     24 H           7.2634   -1.4050    0.0000 H       1  UNL1        0.0659
     25 H           8.6663    1.0250    0.0000 H       1  UNL1        0.0623
     26 H           4.3154    2.5596    0.0000 H       1  UNL1        0.0627
     27 H           4.3154   -0.7496    0.0000 H       1  UNL1        0.0691
     28 H           7.8003    2.5250    0.0000 H       1  UNL1        0.2105
     29 H           2.8665    1.7379    0.0000 H       1  UNL1        0.0654
     30 H          10.0693    0.2150    0.0000 H       1  UNL1        0.0655
     31 H           9.2033   -2.9050    0.0000 H       1  UNL1        0.2923
     32 H           2.0000    0.1888    0.0000 H       1  UNL1        0.2921
     33 H          10.9353   -1.2850    0.0000 H       1  UNL1        0.2923
@<TRIPOS>BOND
     1     1     7    1
     2     1    12    1
     3     8     2    1
     4     2    28    1
     5     3    10    2
     6     4    17    1
     7     4    31    1
     8     5    18    1
     9     5    32    1
    10     6    21    1
    11     6    33    1
    12     7     8    1
    13     7     9    1
    14     7    22    1
    15     8    10    1
    16     8    23    1
    17     9    13   ar
    18     9    14   ar
    19    10    11    1
    20    11    12   ar
    21    11    15   ar
    22    12    16   ar
    23    13    17   ar
    24    13    24    1
    25    14    20   ar
    26    14    25    1
    27    15    19   ar
    28    15    26    1
    29    16    18   ar
    30    16    27    1
    31    17    21   ar
    32    18    19   ar
    33    19    29    1
    34    20    21   ar
    35    20    30    1
