@<TRIPOS>MOLECULE
IMPHY010668
 59 65 0 0 0
SMALL
GASTEIGER

@<TRIPOS>ATOM
      1 O           4.5831   -1.9943    0.0000 O.3     1  UNL1       -0.3284
      2 C           4.5831   -3.3175    0.0000 C.3     1  UNL1        0.2693
      3 C           3.4517   -3.9695    0.0000 C.3     1  UNL1        0.2373
      4 C           2.2820   -3.3175    0.0000 C.3     1  UNL1        0.1832
      5 C           2.2820   -1.9943    0.0000 C.3     1  UNL1        0.2085
      6 C           3.4517   -1.3232    0.0000 C.3     1  UNL1        0.1507
      7 O           5.7337   -3.9695    0.0000 O.3     1  UNL1       -0.3260
      8 C           5.7337   -6.4240    0.0000 C.3     1  UNL1        0.1719
      9 C           4.5831   -7.0760    0.0000 C.3     1  UNL1        0.1498
     10 C           4.5831   -8.3800    0.0000 C.3     1  UNL1        0.0934
     11 C           5.7337   -9.0703    0.0000 C.3     1  UNL1        0.2377
     12 O           6.8842   -8.3800    0.0000 O.3     1  UNL1       -0.3304
     13 C           6.8842   -7.0760    0.0000 C.3     1  UNL1        0.1473
     14 O           3.4517   -5.2926    0.0000 O.3     1  UNL1       -0.2150
     15 O           1.1314   -3.9695    0.0000 O.3     1  UNL1       -0.3481
     16 C           0.0000   -3.3175    0.0000 C.3     1  UNL1        0.1742
     17 O           1.1314   -1.3232    0.0000 O.3     1  UNL1       -0.2178
     18 C           3.4517    0.0000    0.0000 C.3     1  UNL1        0.0350
     19 O           3.4325   -6.4240    0.0000 O.3     1  UNL1       -0.3508
     20 C           2.2820   -7.0760    0.0000 C.3     1  UNL1        0.1741
     21 O           5.7145  -10.3935    0.0000 O.3     1  UNL1       -0.3278
     22 C           6.8651  -11.0646    0.0000 C.3     1  UNL1        0.1751
     23 C           6.8651  -12.3878    0.0000 C.3     1  UNL1        0.1864
     24 C           8.0156  -13.0398    0.0000 C.3     1  UNL1        0.0968
     25 C           9.1662  -12.3878    0.0000 C.3     1  UNL1        0.2377
     26 O           9.1662  -11.0646    0.0000 O.3     1  UNL1       -0.3304
     27 C           8.0348  -10.3935    0.0000 C.3     1  UNL1        0.1474
     28 C           8.0348   -6.4240    0.0000 C.3     1  UNL1        0.0348
     29 O           5.6953  -13.0398    0.0000 O.3     1  UNL1       -0.2203
     30 O          10.2976  -13.0589    0.0000 O.3     1  UNL1       -0.3326
     31 C          11.4098  -12.4261    0.0000 C.3     1  UNL1        0.1218
     32 C          11.4098  -11.1605    0.0000 C.3     1  UNL1        0.0303
     33 C          12.5412  -10.5085    0.0000 C.3     1  UNL1        0.0061
     34 C          13.6342  -11.1605    0.0000 C.3     1  UNL1        0.0163
     35 C          14.7273  -10.5085    0.0000 C.3     1  UNL1        0.0434
     36 C          15.8395  -11.1605    0.0000 C.3     1  UNL1        0.1552
     37 C          16.9709  -10.5085    0.0000 C.3     1  UNL1        0.1541
     38 C          16.9709   -9.2237    0.0000 C.3     1  UNL1        0.0576
     39 C          18.0639   -8.5909    0.0000 C.3     1  UNL1        0.0140
     40 C          19.1761   -9.2237    0.0000 C.3     1  UNL1        0.0013
     41 C          19.1761  -10.5085    0.0000 C.3     1  UNL1        0.0327
     42 C          12.5412  -13.0589    0.0000 C.3     1  UNL1        0.0513
     43 C          13.6342  -12.4261    0.0000 C.2     1  UNL1       -0.0467
     44 C          14.7273  -13.0589    0.0000 C.2     1  UNL1       -0.0319
     45 C          15.8395  -12.4261    0.0000 C.3     1  UNL1        0.0580
     46 C          14.7273   -9.2237    0.0000 C.3     1  UNL1        0.1811
     47 C          15.8587   -8.5909    0.0000 C.3     1  UNL1        0.1839
     48 C           8.0348   -9.0703    0.0000 C.3     1  UNL1        0.0348
     49 C          13.6342   -9.8757    0.0000 C.3     1  UNL1        0.0039
     50 O          15.8395   -9.8182    0.0000 O.3     1  UNL1       -0.2230
     51 O          16.9709  -11.7933    0.0000 O.3     1  UNL1       -0.2231
     52 C          16.9709   -7.9581    0.0000 C.3     1  UNL1        0.0049
     53 C          18.0639   -7.3253    0.0000 C.3     1  UNL1        0.1485
     54 O          19.1761   -6.6733    0.0000 O.3     1  UNL1       -0.2235
     55 O          13.6342   -8.5909    0.0000 O.3     1  UNL1       -0.2207
     56 O          15.8587   -7.3253    0.0000 O.3     1  UNL1       -0.2204
     57 C          16.9709   -6.6733    0.0000 C.3     1  UNL1        0.0352
     58 H          14.7273  -11.6399    0.0000 H       1  UNL1        0.0371
     59 H          18.0639   -9.7415    0.0000 H       1  UNL1        0.0344
@<TRIPOS>BOND
     1     1     2    1
     2     1     6    1
     3     2     7    1
     4     2     3    1
     5     3     4    1
     6     3    14    1
     7     4     5    1
     8     4    15    1
     9     5     6    1
    10     5    17    1
    11     6    18    1
    12     8     7    1
    13     8     9    1
    14     8    13    1
    15     9    10    1
    16     9    19    1
    17    10    11    1
    18    11    21    1
    19    11    12    1
    20    12    13    1
    21    13    28    1
    22    15    16    1
    23    19    20    1
    24    22    21    1
    25    22    23    1
    26    22    27    1
    27    23    24    1
    28    23    29    1
    29    24    25    1
    30    25    30    1
    31    25    26    1
    32    26    27    1
    33    27    48    1
    34    31    30    1
    35    31    42    1
    36    31    32    1
    37    32    33    1
    38    33    34    1
    39    34    35    1
    40    34    43    1
    41    34    49    1
    42    35    46    1
    43    35    36    1
    44    35    58    1
    45    36    45    1
    46    36    37    1
    47    36    50    1
    48    37    38    1
    49    37    51    1
    50    37    41    1
    51    38    47    1
    52    38    39    1
    53    38    52    1
    54    39    40    1
    55    39    53    1
    56    39    59    1
    57    40    41    1
    58    42    43    1
    59    43    44    2
    60    44    45    1
    61    46    47    1
    62    46    55    1
    63    47    56    1
    64    53    54    1
    65    53    57    1
