@<TRIPOS>MOLECULE
IMPHY003244
 35 37 0 0 0
SMALL
GASTEIGER

@<TRIPOS>ATOM
      1 O           3.9123    2.8014    0.0000 O.3     1  UNL1       -0.3546
      2 O           4.8384   -0.8201    0.0000 O.3     1  UNL1       -0.3918
      3 O           2.0000    2.2957    0.0000 O.2     1  UNL1       -0.2899
      4 O           6.9139    2.8100    0.0000 O.3     1  UNL1       -0.4803
      5 O           7.7799    1.3100    0.0000 O.2     1  UNL1       -0.2506
      6 O           7.7890   -3.1200    0.0000 O.3     1  UNL1       -0.5068
      7 C           5.7890    0.3441    0.0000 C.3     1  UNL1        0.0348
      8 C           4.3901    0.8529    0.0000 C.3     1  UNL1        0.1194
      9 C           6.0478    1.3100    0.0000 C.3     1  UNL1        0.0993
     10 C           4.6489    1.8188    0.0000 C.3     1  UNL1        0.1351
     11 C           3.1691   -0.0128    0.0000 C.2     1  UNL1       -0.0464
     12 C           4.1313   -0.1130    0.0000 C.3     1  UNL1        0.0774
     13 C           6.2890   -0.5219    0.0000 C.ar    1  UNL1       -0.0400
     14 C           2.6157    1.5077    0.0000 C.2     1  UNL1        0.1852
     15 C           6.9139    1.8100    0.0000 C.2     1  UNL1        0.3115
     16 C           2.3400    0.5464    0.0000 C.2     1  UNL1       -0.0177
     17 C           5.7890   -1.3880    0.0000 C.ar    1  UNL1       -0.0547
     18 C           7.2890   -0.5219    0.0000 C.ar    1  UNL1       -0.0547
     19 C           6.2890   -2.2540    0.0000 C.ar    1  UNL1       -0.0199
     20 C           7.7890   -1.3880    0.0000 C.ar    1  UNL1       -0.0199
     21 C           7.2890   -2.2540    0.0000 C.ar    1  UNL1        0.1169
     22 H           5.3906   -0.1309    0.0000 H       1  UNL1        0.0390
     23 H           6.5397    0.9326    0.0000 H       1  UNL1        0.0451
     24 H           5.0183    2.3168    0.0000 H       1  UNL1        0.0688
     25 H           3.1763   -0.6327    0.0000 H       1  UNL1        0.0602
     26 H           3.5694    0.1490    0.0000 H       1  UNL1        0.0589
     27 H           3.7756   -0.6209    0.0000 H       1  UNL1        0.0589
     28 H           1.7574    0.3344    0.0000 H       1  UNL1        0.0651
     29 H           5.1690   -1.3880    0.0000 H       1  UNL1        0.0622
     30 H           7.5990    0.0150    0.0000 H       1  UNL1        0.0622
     31 H           4.6779   -1.4190    0.0000 H       1  UNL1        0.2095
     32 H           5.9790   -2.7909    0.0000 H       1  UNL1        0.0654
     33 H           8.4090   -1.3880    0.0000 H       1  UNL1        0.0654
     34 H           7.4508    3.1200    0.0000 H       1  UNL1        0.2951
     35 H           8.4090   -3.1200    0.0000 H       1  UNL1        0.2921
@<TRIPOS>BOND
     1     1     8    1
     2     1    10    1
     3     2    12    1
     4     2    31    1
     5     3    14    2
     6     4    15    1
     7     4    34    1
     8     5    15    2
     9     6    21    1
    10     6    35    1
    11     7     8    1
    12     7     9    1
    13     7    13    1
    14     7    22    1
    15     8    11    1
    16     8    12    1
    17     9    10    1
    18     9    15    1
    19     9    23    1
    20    10    14    1
    21    10    24    1
    22    11    16    2
    23    11    25    1
    24    12    26    1
    25    12    27    1
    26    13    17   ar
    27    13    18   ar
    28    14    16    1
    29    16    28    1
    30    17    19   ar
    31    17    29    1
    32    18    20   ar
    33    18    30    1
    34    19    21   ar
    35    19    32    1
    36    20    21   ar
    37    20    33    1
