@<TRIPOS>MOLECULE
IMPHY016716
 40 39 0 0 0
SMALL
GASTEIGER

@<TRIPOS>ATOM
      1 O           4.5981    0.7500    0.0000 O.3     1  UNL1       -0.4638
      2 O           3.7320    2.2500    0.0000 O.2     1  UNL1       -0.2506
      3 C           6.3301    0.7500    0.0000 C.3     1  UNL1        0.0173
      4 C           6.3301   -0.2500    0.0000 C.3     1  UNL1       -0.0249
      5 C           5.4641    1.2500    0.0000 C.3     1  UNL1        0.0992
      6 C           7.1962    1.2500    0.0000 C.2     1  UNL1       -0.0731
      7 C           5.4641   -0.7500    0.0000 C.2     1  UNL1       -0.0846
      8 C           2.8660    0.7500    0.0000 C.3     1  UNL1        0.0508
      9 C           8.0622    0.7500    0.0000 C.3     1  UNL1       -0.0437
     10 C           5.4641   -1.7500    0.0000 C.2     1  UNL1       -0.0796
     11 C           3.7320    1.2500    0.0000 C.2     1  UNL1        0.3097
     12 C           7.1962    2.2500    0.0000 C.2     1  UNL1       -0.0993
     13 C           2.0000    1.2500    0.0000 C.3     1  UNL1       -0.0525
     14 C           2.8660   -0.2500    0.0000 C.3     1  UNL1       -0.0525
     15 C           4.5981   -2.2500    0.0000 C.3     1  UNL1       -0.0440
     16 C           6.3301   -2.2500    0.0000 C.3     1  UNL1       -0.0440
     17 H           6.8671    0.4400    0.0000 H       1  UNL1        0.0381
     18 H           6.5422   -0.8326    0.0000 H       1  UNL1        0.0314
     19 H           6.9407   -0.1423    0.0000 H       1  UNL1        0.0314
     20 H           5.8626    1.7250    0.0000 H       1  UNL1        0.0703
     21 H           5.0656    1.7250    0.0000 H       1  UNL1        0.0703
     22 H           4.9272   -0.4400    0.0000 H       1  UNL1        0.0572
     23 H           2.8660    1.3700    0.0000 H       1  UNL1        0.0408
     24 H           7.7522    0.2131    0.0000 H       1  UNL1        0.0274
     25 H           8.5991    0.4400    0.0000 H       1  UNL1        0.0274
     26 H           8.3722    1.2869    0.0000 H       1  UNL1        0.0274
     27 H           7.7331    2.5600    0.0000 H       1  UNL1        0.0534
     28 H           6.6592    2.5600    0.0000 H       1  UNL1        0.0534
     29 H           2.3100    1.7869    0.0000 H       1  UNL1        0.0237
     30 H           1.4631    1.5600    0.0000 H       1  UNL1        0.0237
     31 H           1.6900    0.7131    0.0000 H       1  UNL1        0.0237
     32 H           2.2460   -0.2500    0.0000 H       1  UNL1        0.0237
     33 H           2.8660   -0.8700    0.0000 H       1  UNL1        0.0237
     34 H           3.4860   -0.2500    0.0000 H       1  UNL1        0.0237
     35 H           4.2881   -1.7131    0.0000 H       1  UNL1        0.0274
     36 H           4.0611   -2.5600    0.0000 H       1  UNL1        0.0274
     37 H           4.9081   -2.7869    0.0000 H       1  UNL1        0.0274
     38 H           6.0201   -2.7869    0.0000 H       1  UNL1        0.0274
     39 H           6.8671   -2.5600    0.0000 H       1  UNL1        0.0274
     40 H           6.6401   -1.7131    0.0000 H       1  UNL1        0.0274
@<TRIPOS>BOND
     1     1     5    1
     2     1    11    1
     3     2    11    2
     4     3     4    1
     5     3     5    1
     6     3     6    1
     7     3    17    1
     8     4     7    1
     9     4    18    1
    10     4    19    1
    11     5    20    1
    12     5    21    1
    13     6     9    1
    14     6    12    2
    15     7    10    2
    16     7    22    1
    17     8    11    1
    18     8    13    1
    19     8    14    1
    20     8    23    1
    21     9    24    1
    22     9    25    1
    23     9    26    1
    24    10    15    1
    25    10    16    1
    26    12    27    1
    27    12    28    1
    28    13    29    1
    29    13    30    1
    30    13    31    1
    31    14    32    1
    32    14    33    1
    33    14    34    1
    34    15    35    1
    35    15    36    1
    36    15    37    1
    37    16    38    1
    38    16    39    1
    39    16    40    1
