@<TRIPOS>MOLECULE
IMPHY005747
 81 85 0 0 0
SMALL
GASTEIGER

@<TRIPOS>ATOM
      1 O           2.5357   -2.5933    0.0000 O.3     1  UNL1       -0.3912
      2 O           5.3307    0.9590    0.0000 O.2     1  UNL1       -0.2967
      3 O          11.5367    0.5118    0.0000 O.3     1  UNL1       -0.3909
      4 C           7.0628   -1.0410    0.0000 C.3     1  UNL1       -0.0130
      5 C           5.2868   -1.0478    0.0000 C.3     1  UNL1       -0.0186
      6 C           6.1968   -0.5410    0.0000 C.3     1  UNL1        0.0296
      7 C           7.9288   -0.5410    0.0000 C.3     1  UNL1       -0.0043
      8 C           5.2787   -2.0894    0.0000 C.3     1  UNL1       -0.0275
      9 C           7.0789   -2.0825    0.0000 C.3     1  UNL1       -0.0459
     10 C           6.1808   -2.6102    0.0000 C.3     1  UNL1       -0.0486
     11 C           4.3433   -2.6391    0.0000 C.3     1  UNL1       -0.0056
     12 C           7.9288    0.4590    0.0000 C.2     1  UNL1       -0.0561
     13 C           4.3599   -0.4837    0.0000 C.3     1  UNL1       -0.0443
     14 C           8.8228   -1.0756    0.0000 C.3     1  UNL1       -0.0425
     15 C           6.1968    0.4590    0.0000 C.2     1  UNL1        0.1415
     16 C           9.7288    0.4799    0.0000 C.3     1  UNL1        0.0152
     17 C           8.8228    0.9937    0.0000 C.2     1  UNL1       -0.0605
     18 C           7.7056   -1.8070    0.0000 C.3     1  UNL1       -0.0581
     19 C           3.4037   -2.0966    0.0000 C.3     1  UNL1        0.0606
     20 C           7.0628    0.9590    0.0000 C.3     1  UNL1        0.0281
     21 C           9.7288   -0.5618    0.0000 C.3     1  UNL1       -0.0407
     22 C           5.2945   -0.0478    0.0000 C.3     1  UNL1       -0.0586
     23 C           3.4120   -1.0117    0.0000 C.3     1  UNL1       -0.0258
     24 C           8.2709   -1.4806    0.0000 C.3     1  UNL1       -0.0553
     25 C          10.6726    1.0151    0.0000 C.3     1  UNL1        0.0648
     26 C           8.7977    2.0784    0.0000 C.3     1  UNL1       -0.0256
     27 C           3.8467   -3.5071    0.0000 C.3     1  UNL1       -0.0572
     28 C           4.8466   -3.5032    0.0000 C.3     1  UNL1       -0.0572
     29 C           9.7288    2.6353    0.0000 C.3     1  UNL1       -0.0288
     30 C          10.6726    2.1001    0.0000 C.3     1  UNL1       -0.0206
     31 C          10.5987   -0.0135    0.0000 C.3     1  UNL1       -0.0535
     32 C          10.2188    3.5071    0.0000 C.3     1  UNL1       -0.0594
     33 C           9.2188    3.4955    0.0000 C.3     1  UNL1       -0.0594
     34 H           6.9329   -0.1160    0.0000 H       1  UNL1        0.0388
     35 H           5.2820   -2.9394    0.0000 H       1  UNL1        0.0312
     36 H           7.2969   -2.6629    0.0000 H       1  UNL1        0.0271
     37 H           7.6880   -1.9670    0.0000 H       1  UNL1        0.0271
     38 H           5.7835   -3.0862    0.0000 H       1  UNL1        0.0268
     39 H           6.5818   -3.0831    0.0000 H       1  UNL1        0.0268
     40 H           4.7681   -0.0171    0.0000 H       1  UNL1        0.0272
     41 H           3.9700   -0.0017    0.0000 H       1  UNL1        0.0272
     42 H           8.4182   -1.5454    0.0000 H       1  UNL1        0.0274
     43 H           9.2164   -1.5546    0.0000 H       1  UNL1        0.0274
     44 H           7.2306   -2.2055    0.0000 H       1  UNL1        0.0236
     45 H           8.1041   -2.2820    0.0000 H       1  UNL1        0.0236
     46 H           8.1805   -1.4085    0.0000 H       1  UNL1        0.0236
     47 H           3.4025   -2.7166    0.0000 H       1  UNL1        0.0599
     48 H           7.4613    1.4340    0.0000 H       1  UNL1        0.0387
     49 H           6.6643    1.4340    0.0000 H       1  UNL1        0.0387
     50 H           9.9379   -1.1455    0.0000 H       1  UNL1        0.0275
     51 H          10.3397   -0.4557    0.0000 H       1  UNL1        0.0275
     52 H           5.9145   -0.0526    0.0000 H       1  UNL1        0.0235
     53 H           5.2993    0.5721    0.0000 H       1  UNL1        0.0235
     54 H           4.6745   -0.0431    0.0000 H       1  UNL1        0.0235
     55 H           3.2075   -0.4264    0.0000 H       1  UNL1        0.0290
     56 H           2.8004   -1.1131    0.0000 H       1  UNL1        0.0290
     57 H           7.6884   -1.6927    0.0000 H       1  UNL1        0.0238
     58 H           8.4830   -2.0632    0.0000 H       1  UNL1        0.0238
     59 H           8.8535   -1.2685    0.0000 H       1  UNL1        0.0238
     60 H          11.2101    1.3241    0.0000 H       1  UNL1        0.0602
     61 H           8.5752    2.6571    0.0000 H       1  UNL1        0.0315
     62 H           8.1894    1.9582    0.0000 H       1  UNL1        0.0315
     63 H           4.3109   -3.8153    0.0000 H       1  UNL1        0.0236
     64 H           5.1587   -4.0390    0.0000 H       1  UNL1        0.0236
     65 H           5.3824   -3.1912    0.0000 H       1  UNL1        0.0236
     66 H           3.3085   -3.1992    0.0000 H       1  UNL1        0.0236
     67 H           3.5387   -4.0452    0.0000 H       1  UNL1        0.0236
     68 H           4.3848   -3.8150    0.0000 H       1  UNL1        0.0236
     69 H          11.2835    1.9940    0.0000 H       1  UNL1        0.0296
     70 H          10.8817    2.6838    0.0000 H       1  UNL1        0.0296
     71 H          10.2928   -0.5528    0.0000 H       1  UNL1        0.0239
     72 H          11.1380   -0.3193    0.0000 H       1  UNL1        0.0239
     73 H          10.9045    0.5259    0.0000 H       1  UNL1        0.0239
     74 H           2.0000   -2.2812    0.0000 H       1  UNL1        0.2098
     75 H          10.7593    3.2033    0.0000 H       1  UNL1        0.0235
     76 H          10.5226    4.0476    0.0000 H       1  UNL1        0.0235
     77 H           9.6783    3.8108    0.0000 H       1  UNL1        0.0235
     78 H           9.7522    3.8117    0.0000 H       1  UNL1        0.0235
     79 H           8.9027    4.0288    0.0000 H       1  UNL1        0.0235
     80 H           8.6855    3.1793    0.0000 H       1  UNL1        0.0235
     81 H          12.0748    0.8197    0.0000 H       1  UNL1        0.2098
@<TRIPOS>BOND
     1    19     1    1
     2     1    74    1
     3     2    15    2
     4    25     3    1
     5     3    81    1
     6     4     6    1
     7     4     7    1
     8     4     9    1
     9     4    18    1
    10     5     6    1
    11     5     8    1
    12     5    13    1
    13     5    22    1
    14     6    15    1
    15     6    34    1
    16     7    12    1
    17     7    14    1
    18     7    24    1
    19     8    10    1
    20     8    11    1
    21     8    35    1
    22     9    10    1
    23     9    36    1
    24     9    37    1
    25    10    38    1
    26    10    39    1
    27    11    19    1
    28    11    27    1
    29    11    28    1
    30    12    17    2
    31    12    20    1
    32    13    23    1
    33    13    40    1
    34    13    41    1
    35    14    21    1
    36    14    42    1
    37    14    43    1
    38    15    20    1
    39    16    17    1
    40    16    21    1
    41    16    25    1
    42    16    31    1
    43    17    26    1
    44    18    44    1
    45    18    45    1
    46    18    46    1
    47    19    23    1
    48    19    47    1
    49    20    48    1
    50    20    49    1
    51    21    50    1
    52    21    51    1
    53    22    52    1
    54    22    53    1
    55    22    54    1
    56    23    55    1
    57    23    56    1
    58    24    57    1
    59    24    58    1
    60    24    59    1
    61    25    30    1
    62    25    60    1
    63    26    29    1
    64    26    61    1
    65    26    62    1
    66    27    66    1
    67    27    67    1
    68    27    68    1
    69    28    63    1
    70    28    64    1
    71    28    65    1
    72    29    30    1
    73    29    32    1
    74    29    33    1
    75    30    69    1
    76    30    70    1
    77    31    71    1
    78    31    72    1
    79    31    73    1
    80    32    75    1
    81    32    76    1
    82    32    77    1
    83    33    78    1
    84    33    79    1
    85    33    80    1
