@<TRIPOS>MOLECULE
IMPHY012367
 93 99 0 0 0
SMALL
GASTEIGER

@<TRIPOS>ATOM
      1 O           3.2704   -2.0858    0.0000 O.3     1  UNL1       -0.3635
      2 O           6.0538    1.7374    0.0000 O.3     1  UNL1       -0.3403
      3 O           2.5357   -1.3077    0.0000 O.3     1  UNL1       -0.3911
      4 O           6.1340   -0.0618    0.0000 O.3     1  UNL1       -0.3873
      5 O           7.0120   -0.8082    0.0000 O.2     1  UNL1       -0.2971
      6 O           4.5357    2.7064    0.0000 O.3     1  UNL1       -0.4569
      7 O           6.1172    2.1689    0.0000 O.3     1  UNL1       -0.4551
      8 O           5.1877    3.2374    0.0000 O.3     1  UNL1       -0.4342
      9 O           7.0778   -5.5695    0.0000 O.2     1  UNL1       -0.4708
     10 O           2.8885    3.2417    0.0000 O.2     1  UNL1       -0.2512
     11 O           7.4441    1.0556    0.0000 O.2     1  UNL1       -0.2512
     12 O           6.9198    3.2374    0.0000 O.2     1  UNL1       -0.2505
     13 C           4.2974   -2.4169    0.0000 C.3     1  UNL1        0.1106
     14 C           4.3058   -1.3319    0.0000 C.3     1  UNL1        0.0360
     15 C           5.2370   -2.9594    0.0000 C.3     1  UNL1        0.0137
     16 C           3.4977   -3.1406    0.0000 C.3     1  UNL1        0.0902
     17 C           5.2038   -0.8041    0.0000 C.3     1  UNL1        0.0385
     18 C           5.1877    0.2374    0.0000 C.3     1  UNL1        0.0376
     19 C           4.3217    0.7374    0.0000 C.3     1  UNL1       -0.0131
     20 C           5.0100   -4.0138    0.0000 C.3     1  UNL1       -0.0019
     21 C           3.4037   -0.8111    0.0000 C.3     1  UNL1        0.0643
     22 C           3.9373   -4.1256    0.0000 C.3     1  UNL1       -0.0163
     23 C           6.1725   -2.4096    0.0000 C.3     1  UNL1        0.0148
     24 C           3.4117    0.2305    0.0000 C.3     1  UNL1       -0.0219
     25 C           4.3217    1.7374    0.0000 C.3     1  UNL1        0.0744
     26 C           6.1557   -1.3248    0.0000 C.2     1  UNL1        0.1384
     27 C           5.3908    0.6073    0.0000 C.3     1  UNL1        0.1042
     28 C           3.3223   -1.5131    0.0000 C.3     1  UNL1       -0.0538
     29 C           6.1031   -3.4594    0.0000 C.3     1  UNL1       -0.0559
     30 C           6.0538    0.7374    0.0000 C.3     1  UNL1        0.0607
     31 C           4.7436    1.7283    0.0000 C.3     1  UNL1        0.1535
     32 C           5.4745    1.4029    0.0000 C.3     1  UNL1        0.1666
     33 C           5.1877    2.2374    0.0000 C.3     1  UNL1        0.2139
     34 C           5.6779   -4.7581    0.0000 C.ar    1  UNL1       -0.0059
     35 C           3.4557    2.2374    0.0000 C.3     1  UNL1       -0.0500
     36 C           5.4683   -5.7359    0.0000 C.ar    1  UNL1       -0.0205
     37 C           6.6726   -4.6553    0.0000 C.ar    1  UNL1        0.0951
     38 C           6.3334   -6.2374    0.0000 C.ar    1  UNL1        0.0919
     39 C           3.8666    3.4496    0.0000 C.2     1  UNL1        0.3043
     40 C           7.1020    1.9953    0.0000 C.2     1  UNL1        0.3044
     41 C           6.0538    3.7374    0.0000 C.2     1  UNL1        0.3121
     42 C           6.0538    4.7374    0.0000 C.3     1  UNL1        0.0535
     43 C           4.1756    4.4006    0.0000 C.3     1  UNL1        0.0332
     44 C           7.7448    2.7613    0.0000 C.3     1  UNL1        0.0332
     45 C           6.9198    5.2374    0.0000 C.3     1  UNL1       -0.0432
     46 C           5.1877    5.2374    0.0000 C.3     1  UNL1       -0.0523
     47 C           6.9198    6.2374    0.0000 C.3     1  UNL1       -0.0645
     48 H           2.6898   -3.4048    0.0000 H       1  UNL1        0.0625
     49 H           5.9316   -0.3650    0.0000 H       1  UNL1        0.0391
     50 H           3.5856    1.1624    0.0000 H       1  UNL1        0.0317
     51 H           4.7871   -4.5923    0.0000 H       1  UNL1        0.0357
     52 H           2.8686   -0.4980    0.0000 H       1  UNL1        0.0600
     53 H           3.3477   -4.3174    0.0000 H       1  UNL1        0.0297
     54 H           4.0660   -4.7321    0.0000 H       1  UNL1        0.0297
     55 H           6.3905   -2.9900    0.0000 H       1  UNL1        0.0348
     56 H           6.7816   -2.2941    0.0000 H       1  UNL1        0.0348
     57 H           3.2072    0.8158    0.0000 H       1  UNL1        0.0293
     58 H           2.8001    0.1291    0.0000 H       1  UNL1        0.0293
     59 H           5.9696    0.8295    0.0000 H       1  UNL1        0.0638
     60 H           3.2100   -0.9034    0.0000 H       1  UNL1        0.0237
     61 H           2.7126   -1.6254    0.0000 H       1  UNL1        0.0237
     62 H           3.4347   -2.1228    0.0000 H       1  UNL1        0.0237
     63 H           5.7931   -3.9963    0.0000 H       1  UNL1        0.0236
     64 H           6.6400   -3.7694    0.0000 H       1  UNL1        0.0236
     65 H           6.4131   -2.9224    0.0000 H       1  UNL1        0.0236
     66 H           6.2658    0.1548    0.0000 H       1  UNL1        0.0568
     67 H           6.6644    0.8450    0.0000 H       1  UNL1        0.0568
     68 H           5.2255    2.1185    0.0000 H       1  UNL1        0.0780
     69 H           5.3350    2.0070    0.0000 H       1  UNL1        0.0798
     70 H           4.6508    2.5474    0.0000 H       1  UNL1        0.1064
     71 H           3.7657    2.7743    0.0000 H       1  UNL1        0.0238
     72 H           2.9188    2.5474    0.0000 H       1  UNL1        0.0238
     73 H           3.1457    1.7004    0.0000 H       1  UNL1        0.0238
     74 H           2.0000   -0.9957    0.0000 H       1  UNL1        0.2098
     75 H           6.0051   -0.6683    0.0000 H       1  UNL1        0.2100
     76 H           4.9014   -5.9871    0.0000 H       1  UNL1        0.0652
     77 H           6.9835   -4.1189    0.0000 H       1  UNL1        0.1032
     78 H           6.3972   -6.8541    0.0000 H       1  UNL1        0.1029
     79 H           6.0538    5.3574    0.0000 H       1  UNL1        0.0410
     80 H           4.7652    4.2091    0.0000 H       1  UNL1        0.0342
     81 H           4.3672    4.9903    0.0000 H       1  UNL1        0.0342
     82 H           3.5859    4.5922    0.0000 H       1  UNL1        0.0342
     83 H           8.2198    2.3628    0.0000 H       1  UNL1        0.0342
     84 H           8.1434    3.2363    0.0000 H       1  UNL1        0.0342
     85 H           7.2699    3.1599    0.0000 H       1  UNL1        0.0342
     86 H           7.1318    4.6548    0.0000 H       1  UNL1        0.0270
     87 H           7.5304    5.3450    0.0000 H       1  UNL1        0.0270
     88 H           5.4977    5.7743    0.0000 H       1  UNL1        0.0238
     89 H           4.6508    5.5474    0.0000 H       1  UNL1        0.0238
     90 H           4.8777    4.7004    0.0000 H       1  UNL1        0.0238
     91 H           7.5398    6.2374    0.0000 H       1  UNL1        0.0230
     92 H           6.9198    6.8574    0.0000 H       1  UNL1        0.0230
     93 H           6.2998    6.2374    0.0000 H       1  UNL1        0.0230
@<TRIPOS>BOND
     1    13     1    1
     2     1    16    1
     3     2    30    1
     4     2    33    1
     5    21     3    1
     6     3    74    1
     7    27     4    1
     8     4    75    1
     9     5    26    2
    10    31     6    1
    11     6    39    1
    12    32     7    1
    13     7    40    1
    14     8    33    1
    15     8    41    1
    16     9    37   ar
    17     9    38   ar
    18    10    39    2
    19    11    40    2
    20    12    41    2
    21    13    14    1
    22    13    15    1
    23    13    16    1
    24    14    17    1
    25    14    21    1
    26    14    28    1
    27    15    20    1
    28    15    23    1
    29    15    29    1
    30    16    22    1
    31    16    48    1
    32    17    18    1
    33    17    26    1
    34    17    49    1
    35    18    19    1
    36    18    27    1
    37    18    30    1
    38    19    24    1
    39    19    25    1
    40    19    50    1
    41    20    22    1
    42    20    34    1
    43    20    51    1
    44    21    24    1
    45    21    52    1
    46    22    53    1
    47    22    54    1
    48    23    26    1
    49    23    55    1
    50    23    56    1
    51    24    57    1
    52    24    58    1
    53    25    31    1
    54    25    33    1
    55    25    35    1
    56    27    32    1
    57    27    59    1
    58    28    60    1
    59    28    61    1
    60    28    62    1
    61    29    63    1
    62    29    64    1
    63    29    65    1
    64    30    66    1
    65    30    67    1
    66    31    32    1
    67    31    68    1
    68    32    69    1
    69    33    70    1
    70    34    36   ar
    71    34    37   ar
    72    35    71    1
    73    35    72    1
    74    35    73    1
    75    36    38   ar
    76    36    76    1
    77    37    77    1
    78    38    78    1
    79    39    43    1
    80    40    44    1
    81    41    42    1
    82    42    45    1
    83    42    46    1
    84    42    79    1
    85    43    80    1
    86    43    81    1
    87    43    82    1
    88    44    83    1
    89    44    84    1
    90    44    85    1
    91    45    47    1
    92    45    86    1
    93    45    87    1
    94    46    88    1
    95    46    89    1
    96    46    90    1
    97    47    91    1
    98    47    92    1
    99    47    93    1
