@<TRIPOS>MOLECULE
IMPHY015350
 19 19 0 0 0
SMALL
GASTEIGER

@<TRIPOS>ATOM
      1 O           3.0878    1.5189    0.0000 O.3     1  UNL1       -0.3918
      2 C           2.5878   -1.0199    0.0000 C.3     1  UNL1       -0.0415
      3 C           2.2788   -0.0689    0.0000 C.3     1  UNL1       -0.0243
      4 C           3.5878   -1.0199    0.0000 C.3     1  UNL1       -0.0480
      5 C           3.0878    0.5189    0.0000 C.3     1  UNL1        0.0555
      6 C           3.8968   -0.0689    0.0000 C.3     1  UNL1       -0.0266
      7 C           2.0000   -1.8289    0.0000 C.3     1  UNL1       -0.0623
      8 H           1.9754   -0.9229    0.0000 H       1  UNL1        0.0299
      9 H           1.9688    0.4681    0.0000 H       1  UNL1        0.0293
     10 H           1.7124   -0.3210    0.0000 H       1  UNL1        0.0293
     11 H           3.5230   -1.6365    0.0000 H       1  UNL1        0.0269
     12 H           4.1942   -1.1488    0.0000 H       1  UNL1        0.0269
     13 H           3.6402    0.8004    0.0000 H       1  UNL1        0.0593
     14 H           4.4632   -0.3210    0.0000 H       1  UNL1        0.0290
     15 H           4.2068    0.4681    0.0000 H       1  UNL1        0.0290
     16 H           1.4984   -1.4645    0.0000 H       1  UNL1        0.0232
     17 H           1.6356   -2.3305    0.0000 H       1  UNL1        0.0232
     18 H           2.5016   -2.1934    0.0000 H       1  UNL1        0.0232
     19 H           3.6247    1.8289    0.0000 H       1  UNL1        0.2098
@<TRIPOS>BOND
     1     1     5    1
     2     1    19    1
     3     2     3    1
     4     2     4    1
     5     2     7    1
     6     2     8    1
     7     3     5    1
     8     3     9    1
     9     3    10    1
    10     4     6    1
    11     4    11    1
    12     4    12    1
    13     5     6    1
    14     5    13    1
    15     6    14    1
    16     6    15    1
    17     7    16    1
    18     7    17    1
    19     7    18    1
