@<TRIPOS>MOLECULE
IMPHY017886
 49 49 0 0 0
SMALL
GASTEIGER

@<TRIPOS>ATOM
      1 O           3.7320    3.2500    0.0000 O.3     1  UNL1       -0.4600
      2 O           2.0000    3.2500    0.0000 O.2     1  UNL1       -0.2505
      3 C           2.8660   -1.2500    0.0000 C.3     1  UNL1       -0.0184
      4 C           3.7320   -0.7500    0.0000 C.3     1  UNL1       -0.0430
      5 C           3.7320    0.2500    0.0000 C.3     1  UNL1       -0.0339
      6 C           2.8660   -2.2500    0.0000 C.ar    1  UNL1       -0.0445
      7 C           2.0000   -0.7500    0.0000 C.3     1  UNL1       -0.0584
      8 C           4.5981    0.7500    0.0000 C.2     1  UNL1       -0.0818
      9 C           2.0000   -2.7500    0.0000 C.ar    1  UNL1       -0.0581
     10 C           3.7320   -2.7500    0.0000 C.ar    1  UNL1       -0.0581
     11 C           4.5981    1.7500    0.0000 C.2     1  UNL1       -0.0396
     12 C           2.0000   -3.7500    0.0000 C.ar    1  UNL1       -0.0586
     13 C           3.7320   -3.7500    0.0000 C.ar    1  UNL1       -0.0586
     14 C           2.8660   -4.2500    0.0000 C.ar    1  UNL1       -0.0504
     15 C           3.7320    2.2500    0.0000 C.3     1  UNL1        0.1133
     16 C           5.4641    2.2500    0.0000 C.3     1  UNL1       -0.0406
     17 C           2.8660    4.7500    0.0000 C.3     1  UNL1        0.0508
     18 C           2.8660   -5.2500    0.0000 C.3     1  UNL1       -0.0397
     19 C           2.8660    3.7500    0.0000 C.2     1  UNL1        0.3100
     20 C           2.0000    5.2500    0.0000 C.3     1  UNL1       -0.0525
     21 C           3.7320    5.2500    0.0000 C.3     1  UNL1       -0.0525
     22 H           2.8660   -0.6300    0.0000 H       1  UNL1        0.0346
     23 H           3.9441   -1.3326    0.0000 H       1  UNL1        0.0274
     24 H           4.3426   -0.6423    0.0000 H       1  UNL1        0.0274
     25 H           3.5200    0.8326    0.0000 H       1  UNL1        0.0308
     26 H           3.1215    0.1423    0.0000 H       1  UNL1        0.0308
     27 H           2.3100   -0.2131    0.0000 H       1  UNL1        0.0236
     28 H           1.4631   -0.4400    0.0000 H       1  UNL1        0.0236
     29 H           1.6900   -1.2869    0.0000 H       1  UNL1        0.0236
     30 H           5.1350    0.4400    0.0000 H       1  UNL1        0.0573
     31 H           1.4631   -2.4400    0.0000 H       1  UNL1        0.0620
     32 H           4.2690   -2.4400    0.0000 H       1  UNL1        0.0620
     33 H           1.4631   -4.0600    0.0000 H       1  UNL1        0.0620
     34 H           4.2690   -4.0600    0.0000 H       1  UNL1        0.0620
     35 H           3.1215    2.3577    0.0000 H       1  UNL1        0.0745
     36 H           3.5200    1.6674    0.0000 H       1  UNL1        0.0745
     37 H           5.7741    1.7131    0.0000 H       1  UNL1        0.0275
     38 H           6.0010    2.5600    0.0000 H       1  UNL1        0.0275
     39 H           5.1541    2.7869    0.0000 H       1  UNL1        0.0275
     40 H           2.8660    5.3700    0.0000 H       1  UNL1        0.0408
     41 H           2.2460   -5.2500    0.0000 H       1  UNL1        0.0278
     42 H           2.8660   -5.8700    0.0000 H       1  UNL1        0.0278
     43 H           3.4860   -5.2500    0.0000 H       1  UNL1        0.0278
     44 H           2.3100    5.7869    0.0000 H       1  UNL1        0.0237
     45 H           1.4631    5.5600    0.0000 H       1  UNL1        0.0237
     46 H           1.6900    4.7131    0.0000 H       1  UNL1        0.0237
     47 H           4.0420    4.7131    0.0000 H       1  UNL1        0.0237
     48 H           4.2690    5.5600    0.0000 H       1  UNL1        0.0237
     49 H           3.4220    5.7869    0.0000 H       1  UNL1        0.0237
@<TRIPOS>BOND
     1     1    15    1
     2     1    19    1
     3     2    19    2
     4     3     4    1
     5     3     6    1
     6     3     7    1
     7     3    22    1
     8     4     5    1
     9     4    23    1
    10     4    24    1
    11     5     8    1
    12     5    25    1
    13     5    26    1
    14     6     9   ar
    15     6    10   ar
    16     7    27    1
    17     7    28    1
    18     7    29    1
    19     8    11    2
    20     8    30    1
    21     9    12   ar
    22     9    31    1
    23    10    13   ar
    24    10    32    1
    25    11    15    1
    26    11    16    1
    27    12    14   ar
    28    12    33    1
    29    13    14   ar
    30    13    34    1
    31    14    18    1
    32    15    35    1
    33    15    36    1
    34    16    37    1
    35    16    38    1
    36    16    39    1
    37    17    19    1
    38    17    20    1
    39    17    21    1
    40    17    40    1
    41    18    41    1
    42    18    42    1
    43    18    43    1
    44    20    44    1
    45    20    45    1
    46    20    46    1
    47    21    47    1
    48    21    48    1
    49    21    49    1
