@<TRIPOS>MOLECULE
IMPHY014744
 39 39 0 0 0
SMALL
GASTEIGER

@<TRIPOS>ATOM
      1 O           3.3660   -0.5005    0.0000 O.3     1  UNL1       -0.3796
      2 O           3.8660   -4.3665    0.0000 O.2     1  UNL1       -0.2927
      3 O           3.8660    3.8296    0.0000 O.3     1  UNL1       -0.4775
      4 O           5.3660    2.9636    0.0000 O.2     1  UNL1       -0.2458
      5 C           3.0000   -1.8665    0.0000 C.3     1  UNL1        0.0084
      6 C           3.8660   -1.3665    0.0000 C.3     1  UNL1        0.1111
      7 C           3.0000   -2.8665    0.0000 C.3     1  UNL1        0.0182
      8 C           4.7320   -1.8665    0.0000 C.2     1  UNL1       -0.0339
      9 C           2.0000   -1.8665    0.0000 C.3     1  UNL1       -0.0562
     10 C           2.2340   -1.2238    0.0000 C.3     1  UNL1       -0.0562
     11 C           3.8660   -3.3665    0.0000 C.2     1  UNL1        0.1568
     12 C           4.3660   -0.5005    0.0000 C.2     1  UNL1       -0.0480
     13 C           4.7320   -2.8665    0.0000 C.2     1  UNL1       -0.0172
     14 C           5.5981   -1.3665    0.0000 C.3     1  UNL1       -0.0404
     15 C           3.8660    0.3655    0.0000 C.2     1  UNL1       -0.0595
     16 C           4.3660    1.2315    0.0000 C.2     1  UNL1       -0.0439
     17 C           5.3660    1.2315    0.0000 C.3     1  UNL1       -0.0395
     18 C           3.8660    2.0976    0.0000 C.2     1  UNL1        0.0252
     19 C           4.3660    2.9636    0.0000 C.2     1  UNL1        0.3298
     20 H           2.3894   -2.7589    0.0000 H       1  UNL1        0.0351
     21 H           2.7880   -3.4492    0.0000 H       1  UNL1        0.0351
     22 H           2.0000   -1.2465    0.0000 H       1  UNL1        0.0236
     23 H           1.3800   -1.8665    0.0000 H       1  UNL1        0.0236
     24 H           2.0000   -2.4865    0.0000 H       1  UNL1        0.0236
     25 H           2.6325   -0.7488    0.0000 H       1  UNL1        0.0236
     26 H           1.7590   -0.8252    0.0000 H       1  UNL1        0.0236
     27 H           1.8354   -1.6987    0.0000 H       1  UNL1        0.0236
     28 H           4.9860   -0.5005    0.0000 H       1  UNL1        0.0604
     29 H           5.2690   -3.1765    0.0000 H       1  UNL1        0.0653
     30 H           2.7460   -0.5005    0.0000 H       1  UNL1        0.2111
     31 H           5.9081   -1.9035    0.0000 H       1  UNL1        0.0275
     32 H           6.1350   -1.0565    0.0000 H       1  UNL1        0.0275
     33 H           5.2881   -0.8296    0.0000 H       1  UNL1        0.0275
     34 H           3.2460    0.3655    0.0000 H       1  UNL1        0.0618
     35 H           5.3660    0.6115    0.0000 H       1  UNL1        0.0278
     36 H           5.9860    1.2315    0.0000 H       1  UNL1        0.0278
     37 H           5.3660    1.8515    0.0000 H       1  UNL1        0.0278
     38 H           3.2460    2.0976    0.0000 H       1  UNL1        0.0691
     39 H           4.1760    4.3665    0.0000 H       1  UNL1        0.2954
@<TRIPOS>BOND
     1     6     1    1
     2     1    30    1
     3     2    11    2
     4     3    19    1
     5     3    39    1
     6     4    19    2
     7     5     6    1
     8     5     7    1
     9     5     9    1
    10     5    10    1
    11     6     8    1
    12     6    12    1
    13     7    11    1
    14     7    20    1
    15     7    21    1
    16     8    13    2
    17     8    14    1
    18     9    22    1
    19     9    23    1
    20     9    24    1
    21    10    25    1
    22    10    26    1
    23    10    27    1
    24    11    13    1
    25    12    15    2
    26    12    28    1
    27    13    29    1
    28    14    31    1
    29    14    32    1
    30    14    33    1
    31    15    16    1
    32    15    34    1
    33    16    17    1
    34    16    18    2
    35    17    35    1
    36    17    36    1
    37    17    37    1
    38    18    19    1
    39    18    38    1
