@<TRIPOS>MOLECULE
IMPHY004463
 68 69 0 0 0
SMALL
GASTEIGER

@<TRIPOS>ATOM
      1 O          11.5542   -0.8069    0.0000 O.2     1  UNL1       -0.4212
      2 O           9.7942    2.2278    0.0000 O.3     1  UNL1       -0.5056
      3 O           8.0622   -0.7723    0.0000 O.3     1  UNL1       -0.5055
      4 O          10.6603   -2.2722    0.0000 O.2     1  UNL1       -0.2915
      5 O          13.3244   -0.7964    0.0000 O.2     1  UNL1       -0.2452
      6 C          10.6603    0.7277    0.0000 C.ar    1  UNL1        0.0633
      7 C           9.7942   -0.7723    0.0000 C.ar    1  UNL1        0.1024
      8 C           8.9282   -2.2722    0.0000 C.3     1  UNL1        0.0193
      9 C          10.6603   -0.2723    0.0000 C.ar    1  UNL1        0.1568
     10 C           8.9282    0.7277    0.0000 C.ar    1  UNL1        0.0406
     11 C          11.5542    1.2624    0.0000 C.ar    1  UNL1       -0.0264
     12 C           9.7942    1.2277    0.0000 C.ar    1  UNL1        0.1347
     13 C           8.9282   -0.2723    0.0000 C.ar    1  UNL1        0.1378
     14 C           9.7942   -1.7722    0.0000 C.2     1  UNL1        0.1730
     15 C           8.0622    1.2277    0.0000 C.3     1  UNL1       -0.0023
     16 C          11.5426    2.2623    0.0000 C.3     1  UNL1       -0.0269
     17 C           8.9282   -3.2722    0.0000 C.3     1  UNL1       -0.0463
     18 C           8.0622   -1.7722    0.0000 C.3     1  UNL1       -0.0554
     19 C          12.4603    0.7486    0.0000 C.ar    1  UNL1        0.0269
     20 C          12.4028    2.7723    0.0000 C.3     1  UNL1       -0.0519
     21 C           7.1962    0.7277    0.0000 C.2     1  UNL1       -0.0805
     22 C           6.3301    1.2277    0.0000 C.2     1  UNL1       -0.0759
     23 C          12.4603   -0.2931    0.0000 C.ar    1  UNL1        0.3375
     24 C           8.0622   -3.7722    0.0000 C.3     1  UNL1       -0.0646
     25 C           5.4641    0.7277    0.0000 C.3     1  UNL1       -0.0286
     26 C          12.3913    3.7722    0.0000 C.3     1  UNL1       -0.0650
     27 C           4.5981    1.2277    0.0000 C.3     1  UNL1       -0.0308
     28 C           6.3301    2.2278    0.0000 C.3     1  UNL1       -0.0438
     29 C           3.7320    0.7277    0.0000 C.2     1  UNL1       -0.0850
     30 C           2.8660    1.2277    0.0000 C.2     1  UNL1       -0.0796
     31 C           2.0000    0.7277    0.0000 C.3     1  UNL1       -0.0440
     32 C           2.8660    2.2278    0.0000 C.3     1  UNL1       -0.0440
     33 H           8.3913   -2.5822    0.0000 H       1  UNL1        0.0378
     34 H           8.4607    1.7027    0.0000 H       1  UNL1        0.0358
     35 H           7.6636    1.7027    0.0000 H       1  UNL1        0.0358
     36 H          11.3239    2.8425    0.0000 H       1  UNL1        0.0313
     37 H          10.9333    2.1476    0.0000 H       1  UNL1        0.0313
     38 H           9.1403   -3.8549    0.0000 H       1  UNL1        0.0269
     39 H           9.5388   -3.1646    0.0000 H       1  UNL1        0.0269
     40 H           8.3722   -1.2353    0.0000 H       1  UNL1        0.0237
     41 H           7.5252   -1.4622    0.0000 H       1  UNL1        0.0237
     42 H           7.7522   -2.3092    0.0000 H       1  UNL1        0.0237
     43 H          12.9960    1.0606    0.0000 H       1  UNL1        0.0692
     44 H          12.6216    2.1922    0.0000 H       1  UNL1        0.0266
     45 H          13.0121    2.8870    0.0000 H       1  UNL1        0.0266
     46 H           7.1962    0.1077    0.0000 H       1  UNL1        0.0575
     47 H           7.7522   -3.2353    0.0000 H       1  UNL1        0.0230
     48 H           7.5252   -4.0822    0.0000 H       1  UNL1        0.0230
     49 H           8.3722   -4.3092    0.0000 H       1  UNL1        0.0230
     50 H           5.0656    0.2528    0.0000 H       1  UNL1        0.0313
     51 H           5.8626    0.2528    0.0000 H       1  UNL1        0.0313
     52 H          13.0112    3.7794    0.0000 H       1  UNL1        0.0230
     53 H          12.3841    4.3922    0.0000 H       1  UNL1        0.0230
     54 H          11.7713    3.7651    0.0000 H       1  UNL1        0.0230
     55 H           9.2573    2.5378    0.0000 H       1  UNL1        0.2922
     56 H           7.5252   -0.4623    0.0000 H       1  UNL1        0.2922
     57 H           4.9966    1.7027    0.0000 H       1  UNL1        0.0310
     58 H           4.1996    1.7027    0.0000 H       1  UNL1        0.0310
     59 H           6.9501    2.2278    0.0000 H       1  UNL1        0.0274
     60 H           6.3301    2.8478    0.0000 H       1  UNL1        0.0274
     61 H           5.7101    2.2278    0.0000 H       1  UNL1        0.0274
     62 H           3.7320    0.1077    0.0000 H       1  UNL1        0.0572
     63 H           1.6900    1.2647    0.0000 H       1  UNL1        0.0274
     64 H           1.4631    0.4177    0.0000 H       1  UNL1        0.0274
     65 H           2.3100    0.1908    0.0000 H       1  UNL1        0.0274
     66 H           3.4860    2.2278    0.0000 H       1  UNL1        0.0274
     67 H           2.8660    2.8478    0.0000 H       1  UNL1        0.0274
     68 H           2.2460    2.2278    0.0000 H       1  UNL1        0.0274
@<TRIPOS>BOND
     1     1     9   ar
     2     1    23   ar
     3     2    12    1
     4     2    55    1
     5     3    13    1
     6     3    56    1
     7     4    14    2
     8     5    23    2
     9     6     9   ar
    10     6    11   ar
    11     6    12   ar
    12     7     9   ar
    13     7    13   ar
    14     7    14    1
    15     8    14    1
    16     8    17    1
    17     8    18    1
    18     8    33    1
    19    10    12   ar
    20    10    13   ar
    21    10    15    1
    22    11    16    1
    23    11    19   ar
    24    15    21    1
    25    15    34    1
    26    15    35    1
    27    16    20    1
    28    16    36    1
    29    16    37    1
    30    17    24    1
    31    17    38    1
    32    17    39    1
    33    18    40    1
    34    18    41    1
    35    18    42    1
    36    19    23   ar
    37    19    43    1
    38    20    26    1
    39    20    44    1
    40    20    45    1
    41    21    22    2
    42    21    46    1
    43    22    25    1
    44    22    28    1
    45    24    47    1
    46    24    48    1
    47    24    49    1
    48    25    27    1
    49    25    50    1
    50    25    51    1
    51    26    52    1
    52    26    53    1
    53    26    54    1
    54    27    29    1
    55    27    57    1
    56    27    58    1
    57    28    59    1
    58    28    60    1
    59    28    61    1
    60    29    30    2
    61    29    62    1
    62    30    31    1
    63    30    32    1
    64    31    63    1
    65    31    64    1
    66    31    65    1
    67    32    66    1
    68    32    67    1
    69    32    68    1
