@<TRIPOS>MOLECULE
IMPHY015165
 14 14 0 0 0
SMALL
GASTEIGER

@<TRIPOS>ATOM
      1 C           2.8660    1.0000    0.0000 C.3     1  UNL1       -0.0165
      2 C           2.8660   -1.0000    0.0000 C.3     1  UNL1       -0.0165
      3 C           3.7320   -0.5000    0.0000 C.2     1  UNL1       -0.0839
      4 C           3.7320    0.5000    0.0000 C.2     1  UNL1       -0.0839
      5 C           2.0000   -0.5000    0.0000 C.2     1  UNL1       -0.0839
      6 C           2.0000    0.5000    0.0000 C.2     1  UNL1       -0.0839
      7 H           3.2646    1.4750    0.0000 H       1  UNL1        0.0350
      8 H           2.4675    1.4750    0.0000 H       1  UNL1        0.0350
      9 H           2.4675   -1.4750    0.0000 H       1  UNL1        0.0350
     10 H           3.2646   -1.4750    0.0000 H       1  UNL1        0.0350
     11 H           4.2690   -0.8100    0.0000 H       1  UNL1        0.0572
     12 H           1.4631   -0.8100    0.0000 H       1  UNL1        0.0572
     13 H           4.2690    0.8100    0.0000 H       1  UNL1        0.0572
     14 H           1.4631    0.8100    0.0000 H       1  UNL1        0.0572
@<TRIPOS>BOND
     1     1     4    1
     2     1     6    1
     3     1     7    1
     4     1     8    1
     5     2     3    1
     6     2     5    1
     7     2     9    1
     8     2    10    1
     9     3     4    2
    10     3    11    1
    11     4    13    1
    12     5     6    2
    13     5    12    1
    14     6    14    1
