@<TRIPOS>MOLECULE
IMPHY014129
 83 88 0 0 0
SMALL
GASTEIGER

@<TRIPOS>ATOM
      1 O          14.7285   -1.6550    0.0000 O.3     1  UNL1       -0.3609
      2 O          14.7285   -4.6550    0.0000 O.3     1  UNL1       -0.3865
      3 O          12.9965   -3.6550    0.0000 O.3     1  UNL1       -0.3862
      4 O          16.4606   -3.6550    0.0000 O.3     1  UNL1       -0.3865
      5 O          17.3266   -2.1550    0.0000 O.3     1  UNL1       -0.3924
      6 O          13.8625   -0.1550    0.0000 O.3     1  UNL1       -0.5054
      7 O          12.1304   -3.1550    0.0000 O.3     1  UNL1       -0.5029
      8 O          10.3984   -2.1550    0.0000 O.3     1  UNL1       -0.4486
      9 O          10.3984   -0.1550    0.0000 O.3     1  UNL1       -0.5026
     10 O           6.0682   -0.6550    0.0000 O.3     1  UNL1       -0.4828
     11 O          11.2644    1.3450    0.0000 O.2     1  UNL1       -0.2870
     12 O           6.0682    2.3450    0.0000 O.2     1  UNL1       -0.2917
     13 O           4.3198    2.3796    0.0000 O.3     1  UNL1       -0.5058
     14 O           2.5381   -0.6792    0.0000 O.3     1  UNL1       -0.5065
     15 O          16.4606    4.3450    0.0000 O.3     1  UNL1       -0.5068
     16 C          14.7285   -3.6550    0.0000 C.3     1  UNL1        0.1121
     17 C          13.8625   -3.1550    0.0000 C.3     1  UNL1        0.1139
     18 C          15.5945   -3.1550    0.0000 C.3     1  UNL1        0.1117
     19 C          13.8625   -2.1550    0.0000 C.3     1  UNL1        0.1194
     20 C          15.5945   -2.1550    0.0000 C.3     1  UNL1        0.1108
     21 C          12.9965   -1.6550    0.0000 C.ar    1  UNL1        0.0710
     22 C          16.4606   -1.6550    0.0000 C.3     1  UNL1        0.0729
     23 C          12.9965   -0.6550    0.0000 C.ar    1  UNL1        0.1406
     24 C          12.1304   -2.1550    0.0000 C.ar    1  UNL1        0.1722
     25 C          12.1304   -0.1550    0.0000 C.ar    1  UNL1        0.1085
     26 C          11.2644   -1.6550    0.0000 C.ar    1  UNL1        0.2120
     27 C          11.2644   -0.6550    0.0000 C.ar    1  UNL1        0.1774
     28 C          12.1304    0.8450    0.0000 C.2     1  UNL1        0.1932
     29 C           6.9343   -0.1550    0.0000 C.3     1  UNL1        0.1322
     30 C           9.5323   -1.6550    0.0000 C.ar    1  UNL1        0.1288
     31 C           7.8003   -0.6550    0.0000 C.ar    1  UNL1       -0.0067
     32 C           6.9343    0.8450    0.0000 C.3     1  UNL1        0.0520
     33 C          12.9965    1.3450    0.0000 C.2     1  UNL1       -0.0135
     34 C           9.5323   -0.6550    0.0000 C.ar    1  UNL1       -0.0190
     35 C           8.6663   -2.1550    0.0000 C.ar    1  UNL1       -0.0190
     36 C           8.6663   -0.1550    0.0000 C.ar    1  UNL1       -0.0516
     37 C           7.8003   -1.6550    0.0000 C.ar    1  UNL1       -0.0516
     38 C           6.0682    1.3450    0.0000 C.2     1  UNL1        0.1740
     39 C           5.2022    0.8450    0.0000 C.ar    1  UNL1        0.1007
     40 C           5.2022   -0.1550    0.0000 C.ar    1  UNL1        0.1389
     41 C           4.3083    1.3797    0.0000 C.ar    1  UNL1        0.1343
     42 C          12.9965    2.3450    0.0000 C.2     1  UNL1       -0.0510
     43 C           4.3083   -0.6897    0.0000 C.ar    1  UNL1        0.0225
     44 C           3.4022   -0.1758    0.0000 C.ar    1  UNL1        0.1238
     45 C           3.4022    0.8658    0.0000 C.ar    1  UNL1        0.0222
     46 C          13.8625    2.8450    0.0000 C.ar    1  UNL1       -0.0247
     47 C          13.8625    3.8450    0.0000 C.ar    1  UNL1       -0.0511
     48 C          14.7285    2.3450    0.0000 C.ar    1  UNL1       -0.0511
     49 C          14.7285    4.3450    0.0000 C.ar    1  UNL1       -0.0196
     50 C          15.5945    2.8450    0.0000 C.ar    1  UNL1       -0.0196
     51 C          15.5945    3.8450    0.0000 C.ar    1  UNL1        0.1169
     52 H          14.1916   -3.9650    0.0000 H       1  UNL1        0.0647
     53 H          13.3255   -2.8450    0.0000 H       1  UNL1        0.0649
     54 H          15.5945   -3.7750    0.0000 H       1  UNL1        0.0647
     55 H          13.8625   -1.3050    0.0000 H       1  UNL1        0.0676
     56 H          15.5945   -1.5350    0.0000 H       1  UNL1        0.0646
     57 H          16.8591   -1.1800    0.0000 H       1  UNL1        0.0584
     58 H          16.0620   -1.1800    0.0000 H       1  UNL1        0.0584
     59 H          15.2654   -4.9650    0.0000 H       1  UNL1        0.2100
     60 H          12.9965   -4.2750    0.0000 H       1  UNL1        0.2100
     61 H          16.4606   -4.2750    0.0000 H       1  UNL1        0.2100
     62 H          17.8635   -1.8450    0.0000 H       1  UNL1        0.2095
     63 H          13.8625    0.4650    0.0000 H       1  UNL1        0.2922
     64 H          11.5935   -3.4650    0.0000 H       1  UNL1        0.2923
     65 H           6.9343   -0.7750    0.0000 H       1  UNL1        0.0789
     66 H           7.5449    0.7373    0.0000 H       1  UNL1        0.0385
     67 H           7.1463    1.4276    0.0000 H       1  UNL1        0.0385
     68 H          10.3984    0.4650    0.0000 H       1  UNL1        0.2923
     69 H          13.5334    1.0350    0.0000 H       1  UNL1        0.0656
     70 H          10.0693   -0.3450    0.0000 H       1  UNL1        0.0654
     71 H           8.6663   -2.7750    0.0000 H       1  UNL1        0.0654
     72 H           8.6663    0.4650    0.0000 H       1  UNL1        0.0623
     73 H           7.2634   -1.9650    0.0000 H       1  UNL1        0.0623
     74 H           4.3154   -1.3096    0.0000 H       1  UNL1        0.0691
     75 H          12.4595    2.6550    0.0000 H       1  UNL1        0.0625
     76 H           2.8665    1.1779    0.0000 H       1  UNL1        0.0691
     77 H           3.7865    2.6958    0.0000 H       1  UNL1        0.2922
     78 H          13.3255    4.1550    0.0000 H       1  UNL1        0.0625
     79 H          14.7285    1.7250    0.0000 H       1  UNL1        0.0625
     80 H           2.0000   -0.3712    0.0000 H       1  UNL1        0.2921
     81 H          14.7285    4.9650    0.0000 H       1  UNL1        0.0654
     82 H          16.1315    2.5350    0.0000 H       1  UNL1        0.0654
     83 H          16.4606    4.9650    0.0000 H       1  UNL1        0.2921
@<TRIPOS>BOND
     1     1    19    1
     2     1    20    1
     3    16     2    1
     4     2    59    1
     5    17     3    1
     6     3    60    1
     7    18     4    1
     8     4    61    1
     9     5    22    1
    10     5    62    1
    11     6    23    1
    12     6    63    1
    13     7    24    1
    14     7    64    1
    15     8    26    1
    16     8    30    1
    17     9    27    1
    18     9    68    1
    19    10    29    1
    20    10    40    1
    21    11    28    2
    22    12    38    2
    23    13    41    1
    24    13    77    1
    25    14    44    1
    26    14    80    1
    27    15    51    1
    28    15    83    1
    29    16    17    1
    30    16    18    1
    31    16    52    1
    32    17    19    1
    33    17    53    1
    34    18    20    1
    35    18    54    1
    36    19    21    1
    37    19    55    1
    38    20    22    1
    39    20    56    1
    40    21    23   ar
    41    21    24   ar
    42    22    57    1
    43    22    58    1
    44    23    25   ar
    45    24    26   ar
    46    25    27   ar
    47    25    28    1
    48    26    27   ar
    49    28    33    1
    50    29    31    1
    51    29    32    1
    52    29    65    1
    53    30    34   ar
    54    30    35   ar
    55    31    36   ar
    56    31    37   ar
    57    32    38    1
    58    32    66    1
    59    32    67    1
    60    33    42    2
    61    33    69    1
    62    34    36   ar
    63    34    70    1
    64    35    37   ar
    65    35    71    1
    66    36    72    1
    67    37    73    1
    68    38    39    1
    69    39    40   ar
    70    39    41   ar
    71    40    43   ar
    72    41    45   ar
    73    42    46    1
    74    42    75    1
    75    43    44   ar
    76    43    74    1
    77    44    45   ar
    78    45    76    1
    79    46    47   ar
    80    46    48   ar
    81    47    49   ar
    82    47    78    1
    83    48    50   ar
    84    48    79    1
    85    49    51   ar
    86    49    81    1
    87    50    51   ar
    88    50    82    1
