@<TRIPOS>MOLECULE
IMPHY017439
 23 23 0 0 0
SMALL
GASTEIGER

@<TRIPOS>ATOM
      1 O           2.8090    0.2239    0.0000 O.2     1  UNL1       -0.4674
      2 O           4.0339   -1.1447    0.0000 O.2     1  UNL1       -0.2967
      3 C           5.7281   -0.7845    0.0000 C.3     1  UNL1        0.0123
      4 C           4.7770   -0.4755    0.0000 C.2     1  UNL1        0.1431
      5 C           4.5691    0.5026    0.0000 C.3     1  UNL1        0.0642
      6 C           5.9360   -1.7627    0.0000 C.3     1  UNL1       -0.0559
      7 C           6.4712   -0.1154    0.0000 C.3     1  UNL1       -0.0559
      8 C           3.6180    0.8116    0.0000 C.ar    1  UNL1        0.1120
      9 C           3.3090    1.7627    0.0000 C.ar    1  UNL1       -0.0203
     10 C           2.3090    1.7627    0.0000 C.ar    1  UNL1       -0.0236
     11 C           2.0000    0.8116    0.0000 C.ar    1  UNL1        0.0921
     12 H           6.3177   -0.9761    0.0000 H       1  UNL1        0.0372
     13 H           5.1887    0.5243    0.0000 H       1  UNL1        0.0421
     14 H           4.6554    1.1166    0.0000 H       1  UNL1        0.0421
     15 H           5.3295   -1.8916    0.0000 H       1  UNL1        0.0236
     16 H           6.0649   -2.3691    0.0000 H       1  UNL1        0.0236
     17 H           6.5424   -1.6338    0.0000 H       1  UNL1        0.0236
     18 H           6.8861   -0.5762    0.0000 H       1  UNL1        0.0236
     19 H           6.9320    0.2994    0.0000 H       1  UNL1        0.0236
     20 H           6.0563    0.3453    0.0000 H       1  UNL1        0.0236
     21 H           3.6734    2.2643    0.0000 H       1  UNL1        0.0652
     22 H           1.9446    2.2643    0.0000 H       1  UNL1        0.0649
     23 H           1.4103    0.6200    0.0000 H       1  UNL1        0.1029
@<TRIPOS>BOND
     1     1     8   ar
     2     1    11   ar
     3     2     4    2
     4     3     4    1
     5     3     6    1
     6     3     7    1
     7     3    12    1
     8     4     5    1
     9     5     8    1
    10     5    13    1
    11     5    14    1
    12     6    15    1
    13     6    16    1
    14     6    17    1
    15     7    18    1
    16     7    19    1
    17     7    20    1
    18     8     9   ar
    19     9    10   ar
    20     9    21    1
    21    10    11   ar
    22    10    22    1
    23    11    23    1
