@<TRIPOS>MOLECULE
IMPHY016642
 36 35 0 0 0
SMALL
GASTEIGER

@<TRIPOS>ATOM
      1 O           3.7320    0.4400    0.0000 O.3     1  UNL1       -0.4649
      2 O           4.5981   -1.0600    0.0000 O.2     1  UNL1       -0.2508
      3 C           9.7942   -0.0600    0.0000 C.3     1  UNL1       -0.0496
      4 C          10.6603    0.4400    0.0000 C.3     1  UNL1       -0.0530
      5 C           8.9282    0.4400    0.0000 C.3     1  UNL1       -0.0348
      6 C          11.5263   -0.0600    0.0000 C.3     1  UNL1       -0.0559
      7 C           8.0622   -0.0600    0.0000 C.2     1  UNL1       -0.0879
      8 C           6.3301   -0.0600    0.0000 C.3     1  UNL1       -0.0247
      9 C          12.3923    0.4400    0.0000 C.3     1  UNL1       -0.0653
     10 C           7.1962    0.4400    0.0000 C.2     1  UNL1       -0.0874
     11 C           5.4641    0.4400    0.0000 C.3     1  UNL1        0.0483
     12 C           4.5981   -0.0600    0.0000 C.2     1  UNL1        0.3074
     13 C           2.8660   -0.0600    0.0000 C.3     1  UNL1        0.0896
     14 C           2.0000    0.4400    0.0000 C.3     1  UNL1       -0.0306
     15 H           9.3957   -0.5349    0.0000 H       1  UNL1        0.0268
     16 H          10.1928   -0.5349    0.0000 H       1  UNL1        0.0268
     17 H          11.0588    0.9149    0.0000 H       1  UNL1        0.0265
     18 H          10.2617    0.9149    0.0000 H       1  UNL1        0.0265
     19 H           9.3267    0.9149    0.0000 H       1  UNL1        0.0307
     20 H           8.5297    0.9149    0.0000 H       1  UNL1        0.0307
     21 H          11.1278   -0.5349    0.0000 H       1  UNL1        0.0263
     22 H          11.9248   -0.5349    0.0000 H       1  UNL1        0.0263
     23 H           8.0622   -0.6800    0.0000 H       1  UNL1        0.0569
     24 H           5.9316   -0.5349    0.0000 H       1  UNL1        0.0312
     25 H           6.7287   -0.5349    0.0000 H       1  UNL1        0.0312
     26 H          12.7023   -0.0969    0.0000 H       1  UNL1        0.0230
     27 H          12.9292    0.7500    0.0000 H       1  UNL1        0.0230
     28 H          12.0823    0.9769    0.0000 H       1  UNL1        0.0230
     29 H           7.1962    1.0600    0.0000 H       1  UNL1        0.0569
     30 H           5.8626    0.9149    0.0000 H       1  UNL1        0.0380
     31 H           5.0656    0.9149    0.0000 H       1  UNL1        0.0380
     32 H           2.4675   -0.5349    0.0000 H       1  UNL1        0.0694
     33 H           3.2646   -0.5349    0.0000 H       1  UNL1        0.0694
     34 H           2.3100    0.9769    0.0000 H       1  UNL1        0.0262
     35 H           1.4631    0.7500    0.0000 H       1  UNL1        0.0262
     36 H           1.6900   -0.0969    0.0000 H       1  UNL1        0.0262
@<TRIPOS>BOND
     1     1    12    1
     2     1    13    1
     3     2    12    2
     4     3     4    1
     5     3     5    1
     6     3    15    1
     7     3    16    1
     8     4     6    1
     9     4    17    1
    10     4    18    1
    11     5     7    1
    12     5    19    1
    13     5    20    1
    14     6     9    1
    15     6    21    1
    16     6    22    1
    17     7    10    2
    18     7    23    1
    19     8    10    1
    20     8    11    1
    21     8    24    1
    22     8    25    1
    23     9    26    1
    24     9    27    1
    25     9    28    1
    26    10    29    1
    27    11    12    1
    28    11    30    1
    29    11    31    1
    30    13    14    1
    31    13    32    1
    32    13    33    1
    33    14    34    1
    34    14    35    1
    35    14    36    1
