@<TRIPOS>MOLECULE
IMPHY013694
 86 86 0 0 0
SMALL
GASTEIGER

@<TRIPOS>ATOM
      1 O          18.5885    5.9400    0.0000 O.2     1  UNL1       -0.2963
      2 C           3.0000   -5.0600    0.0000 C.3     1  UNL1       -0.0099
      3 C           3.0000   -6.0600    0.0000 C.3     1  UNL1       -0.0436
      4 C           3.8660   -6.5600    0.0000 C.3     1  UNL1       -0.0486
      5 C           3.8660   -4.5600    0.0000 C.2     1  UNL1       -0.0427
      6 C           4.7320   -6.0600    0.0000 C.3     1  UNL1       -0.0314
      7 C           4.7320   -5.0600    0.0000 C.2     1  UNL1       -0.0689
      8 C           2.0000   -5.0600    0.0000 C.3     1  UNL1       -0.0558
      9 C           2.5000   -4.1940    0.0000 C.3     1  UNL1       -0.0558
     10 C           3.8660   -3.5600    0.0000 C.2     1  UNL1       -0.0579
     11 C           5.5981   -4.5600    0.0000 C.3     1  UNL1       -0.0432
     12 C           4.7320   -3.0600    0.0000 C.2     1  UNL1       -0.0586
     13 C           4.7320   -2.0600    0.0000 C.2     1  UNL1       -0.0504
     14 C           3.8660   -1.5600    0.0000 C.3     1  UNL1       -0.0397
     15 C           5.5981   -1.5600    0.0000 C.2     1  UNL1       -0.0588
     16 C           6.4641   -2.0600    0.0000 C.2     1  UNL1       -0.0613
     17 C           7.3301   -1.5600    0.0000 C.2     1  UNL1       -0.0588
     18 C           8.1962   -2.0600    0.0000 C.2     1  UNL1       -0.0504
     19 C           8.1962   -3.0600    0.0000 C.3     1  UNL1       -0.0397
     20 C           9.0622   -1.5600    0.0000 C.2     1  UNL1       -0.0588
     21 C           9.9282   -2.0600    0.0000 C.2     1  UNL1       -0.0615
     22 C          10.7942   -1.5600    0.0000 C.2     1  UNL1       -0.0615
     23 C          10.7942   -0.5600    0.0000 C.2     1  UNL1       -0.0588
     24 C          11.6603   -0.0600    0.0000 C.2     1  UNL1       -0.0504
     25 C          11.6603    0.9400    0.0000 C.2     1  UNL1       -0.0588
     26 C          12.5263   -0.5600    0.0000 C.3     1  UNL1       -0.0397
     27 C          13.3923    2.9400    0.0000 C.2     1  UNL1       -0.0504
     28 C          12.5263    1.4400    0.0000 C.2     1  UNL1       -0.0613
     29 C          12.5263    2.4400    0.0000 C.2     1  UNL1       -0.0588
     30 C          13.3923    3.9400    0.0000 C.2     1  UNL1       -0.0588
     31 C          14.2583    2.4400    0.0000 C.3     1  UNL1       -0.0397
     32 C          14.2583    4.4400    0.0000 C.2     1  UNL1       -0.0613
     33 C          15.9904    4.4400    0.0000 C.2     1  UNL1       -0.0504
     34 C          15.1244    3.9400    0.0000 C.2     1  UNL1       -0.0588
     35 C          16.8564    3.9400    0.0000 C.3     1  UNL1       -0.0397
     36 C          15.9904    5.4400    0.0000 C.2     1  UNL1       -0.0558
     37 C          16.8564    5.9400    0.0000 C.2     1  UNL1       -0.0222
     38 C          17.7224    5.4400    0.0000 C.2     1  UNL1        0.1431
     39 H           2.3894   -5.9523    0.0000 H       1  UNL1        0.0274
     40 H           2.7880   -6.6426    0.0000 H       1  UNL1        0.0274
     41 H           3.4675   -7.0350    0.0000 H       1  UNL1        0.0269
     42 H           4.2646   -7.0350    0.0000 H       1  UNL1        0.0269
     43 H           4.9441   -6.6426    0.0000 H       1  UNL1        0.0310
     44 H           5.3426   -5.9523    0.0000 H       1  UNL1        0.0310
     45 H           2.0000   -4.4400    0.0000 H       1  UNL1        0.0238
     46 H           1.3800   -5.0600    0.0000 H       1  UNL1        0.0238
     47 H           2.0000   -5.6800    0.0000 H       1  UNL1        0.0238
     48 H           3.0369   -3.8840    0.0000 H       1  UNL1        0.0238
     49 H           2.1900   -3.6570    0.0000 H       1  UNL1        0.0238
     50 H           1.9631   -4.5040    0.0000 H       1  UNL1        0.0238
     51 H           3.3291   -3.2500    0.0000 H       1  UNL1        0.0621
     52 H           5.9081   -5.0969    0.0000 H       1  UNL1        0.0275
     53 H           6.1350   -4.2500    0.0000 H       1  UNL1        0.0275
     54 H           5.2881   -4.0231    0.0000 H       1  UNL1        0.0275
     55 H           5.2690   -3.3700    0.0000 H       1  UNL1        0.0620
     56 H           4.1760   -1.0231    0.0000 H       1  UNL1        0.0278
     57 H           3.3291   -1.2500    0.0000 H       1  UNL1        0.0278
     58 H           3.5560   -2.0969    0.0000 H       1  UNL1        0.0278
     59 H           5.5981   -0.9400    0.0000 H       1  UNL1        0.0620
     60 H           6.4641   -2.6800    0.0000 H       1  UNL1        0.0618
     61 H           7.3301   -0.9400    0.0000 H       1  UNL1        0.0620
     62 H           7.5762   -3.0600    0.0000 H       1  UNL1        0.0278
     63 H           8.1962   -3.6800    0.0000 H       1  UNL1        0.0278
     64 H           8.8162   -3.0600    0.0000 H       1  UNL1        0.0278
     65 H           9.0622   -0.9400    0.0000 H       1  UNL1        0.0620
     66 H           9.9282   -2.6800    0.0000 H       1  UNL1        0.0618
     67 H          11.3312   -1.8700    0.0000 H       1  UNL1        0.0618
     68 H          10.2573   -0.2500    0.0000 H       1  UNL1        0.0620
     69 H          11.1233    1.2500    0.0000 H       1  UNL1        0.0620
     70 H          12.2163   -1.0969    0.0000 H       1  UNL1        0.0278
     71 H          13.0632   -0.8700    0.0000 H       1  UNL1        0.0278
     72 H          12.8363   -0.0231    0.0000 H       1  UNL1        0.0278
     73 H          13.0632    1.1300    0.0000 H       1  UNL1        0.0618
     74 H          11.9893    2.7500    0.0000 H       1  UNL1        0.0620
     75 H          12.8554    4.2500    0.0000 H       1  UNL1        0.0620
     76 H          13.9483    1.9031    0.0000 H       1  UNL1        0.0278
     77 H          14.7953    2.1300    0.0000 H       1  UNL1        0.0278
     78 H          14.5683    2.9769    0.0000 H       1  UNL1        0.0278
     79 H          14.2583    5.0600    0.0000 H       1  UNL1        0.0618
     80 H          15.1244    3.3200    0.0000 H       1  UNL1        0.0620
     81 H          16.5464    3.4031    0.0000 H       1  UNL1        0.0278
     82 H          17.3933    3.6300    0.0000 H       1  UNL1        0.0278
     83 H          17.1664    4.4769    0.0000 H       1  UNL1        0.0278
     84 H          15.4534    5.7500    0.0000 H       1  UNL1        0.0621
     85 H          16.8564    6.5600    0.0000 H       1  UNL1        0.0649
     86 H          17.7224    4.8200    0.0000 H       1  UNL1        0.1075
@<TRIPOS>BOND
     1     1    38    2
     2     2     3    1
     3     2     5    1
     4     2     8    1
     5     2     9    1
     6     3     4    1
     7     3    39    1
     8     3    40    1
     9     4     6    1
    10     4    41    1
    11     4    42    1
    12     5     7    2
    13     5    10    1
    14     6     7    1
    15     6    43    1
    16     6    44    1
    17     7    11    1
    18     8    45    1
    19     8    46    1
    20     8    47    1
    21     9    48    1
    22     9    49    1
    23     9    50    1
    24    10    12    2
    25    10    51    1
    26    11    52    1
    27    11    53    1
    28    11    54    1
    29    12    13    1
    30    12    55    1
    31    13    14    1
    32    13    15    2
    33    14    56    1
    34    14    57    1
    35    14    58    1
    36    15    16    1
    37    15    59    1
    38    16    17    2
    39    16    60    1
    40    17    18    1
    41    17    61    1
    42    18    19    1
    43    18    20    2
    44    19    62    1
    45    19    63    1
    46    19    64    1
    47    20    21    1
    48    20    65    1
    49    21    22    2
    50    21    66    1
    51    22    23    1
    52    22    67    1
    53    23    24    2
    54    23    68    1
    55    24    25    1
    56    24    26    1
    57    25    28    2
    58    25    69    1
    59    26    70    1
    60    26    71    1
    61    26    72    1
    62    27    29    2
    63    27    30    1
    64    27    31    1
    65    28    29    1
    66    28    73    1
    67    29    74    1
    68    30    32    2
    69    30    75    1
    70    31    76    1
    71    31    77    1
    72    31    78    1
    73    32    34    1
    74    32    79    1
    75    33    34    2
    76    33    35    1
    77    33    36    1
    78    34    80    1
    79    35    81    1
    80    35    82    1
    81    35    83    1
    82    36    37    2
    83    36    84    1
    84    37    38    1
    85    37    85    1
    86    38    86    1
