@<TRIPOS>MOLECULE
IMPHY014321
 55 58 0 0 0
SMALL
GASTEIGER

@<TRIPOS>ATOM
      1 O           5.1350   -0.5870    0.0000 O.3     1  UNL1       -0.3313
      2 O           6.8671   -0.5870    0.0000 O.3     1  UNL1       -0.4599
      3 O           5.1350   -3.5870    0.0000 O.3     1  UNL1       -0.3864
      4 O           3.4030   -2.5870    0.0000 O.3     1  UNL1       -0.3865
      5 O           6.8671   -2.5870    0.0000 O.3     1  UNL1       -0.3829
      6 O           8.6504    2.4272    0.0000 O.3     1  UNL1       -0.4828
      7 O           2.5369   -1.0870    0.0000 O.3     1  UNL1       -0.3924
      8 O           8.6158   -0.5726    0.0000 O.2     1  UNL1       -0.2917
      9 O           5.1208    2.4921    0.0000 O.3     1  UNL1       -0.4949
     10 C           5.1350   -2.5870    0.0000 C.3     1  UNL1        0.1152
     11 C           4.2690   -2.0870    0.0000 C.3     1  UNL1        0.1120
     12 C           6.0010   -2.0870    0.0000 C.3     1  UNL1        0.1454
     13 C           4.2690   -1.0870    0.0000 C.3     1  UNL1        0.1140
     14 C           6.0010   -1.0870    0.0000 C.3     1  UNL1        0.2308
     15 C           3.4030   -0.5870    0.0000 C.3     1  UNL1        0.0731
     16 C           6.8671    0.4130    0.0000 C.ar    1  UNL1        0.1415
     17 C           7.7671    0.9373    0.0000 C.ar    1  UNL1        0.1010
     18 C           9.5106    1.9172    0.0000 C.3     1  UNL1        0.1322
     19 C           9.4991    0.9172    0.0000 C.3     1  UNL1        0.0520
     20 C           7.7787    1.9372    0.0000 C.ar    1  UNL1        0.1389
     21 C           8.6273    0.4273    0.0000 C.2     1  UNL1        0.1740
     22 C           5.9670    0.9373    0.0000 C.ar    1  UNL1        0.0228
     23 C          10.3824    2.4071    0.0000 C.ar    1  UNL1       -0.0069
     24 C           6.8910    2.4822    0.0000 C.ar    1  UNL1        0.0227
     25 C           5.9790    1.9788    0.0000 C.ar    1  UNL1        0.1271
     26 C          11.2426    1.8972    0.0000 C.ar    1  UNL1       -0.0551
     27 C          10.3939    3.4071    0.0000 C.ar    1  UNL1       -0.0551
     28 C          12.1143    2.3871    0.0000 C.ar    1  UNL1       -0.0614
     29 C          11.2657    3.8970    0.0000 C.ar    1  UNL1       -0.0614
     30 C          12.1259    3.3870    0.0000 C.ar    1  UNL1       -0.0617
     31 C           5.1363    3.4920    0.0000 C.3     1  UNL1        0.0788
     32 H           4.5981   -2.8970    0.0000 H       1  UNL1        0.0648
     33 H           4.2690   -2.7070    0.0000 H       1  UNL1        0.0647
     34 H           6.0010   -2.7070    0.0000 H       1  UNL1        0.0683
     35 H           4.2690   -0.4670    0.0000 H       1  UNL1        0.0647
     36 H           6.0010   -0.4670    0.0000 H       1  UNL1        0.1084
     37 H           3.8015   -0.1121    0.0000 H       1  UNL1        0.0584
     38 H           3.0044   -0.1121    0.0000 H       1  UNL1        0.0584
     39 H           4.5981   -3.8970    0.0000 H       1  UNL1        0.2100
     40 H           3.4030   -3.2070    0.0000 H       1  UNL1        0.2100
     41 H           6.8671   -3.2070    0.0000 H       1  UNL1        0.2102
     42 H          10.0439    1.6010    0.0000 H       1  UNL1        0.0789
     43 H           9.7044    0.3322    0.0000 H       1  UNL1        0.0385
     44 H          10.1108    1.0178    0.0000 H       1  UNL1        0.0385
     45 H           5.4277    0.6314    0.0000 H       1  UNL1        0.0691
     46 H           2.0000   -0.7770    0.0000 H       1  UNL1        0.2095
     47 H           6.9053    3.1020    0.0000 H       1  UNL1        0.0691
     48 H          11.2354    1.2772    0.0000 H       1  UNL1        0.0621
     49 H           9.8606    3.7232    0.0000 H       1  UNL1        0.0621
     50 H          12.6476    2.0709    0.0000 H       1  UNL1        0.0618
     51 H          11.2729    4.5170    0.0000 H       1  UNL1        0.0618
     52 H          12.6664    3.6908    0.0000 H       1  UNL1        0.0618
     53 H           5.7562    3.4824    0.0000 H       1  UNL1        0.0660
     54 H           5.1458    4.1119    0.0000 H       1  UNL1        0.0660
     55 H           4.5163    3.5016    0.0000 H       1  UNL1        0.0660
@<TRIPOS>BOND
     1     1    13    1
     2     1    14    1
     3     2    14    1
     4     2    16    1
     5     3    10    1
     6     3    39    1
     7     4    11    1
     8     4    40    1
     9     5    12    1
    10     5    41    1
    11     6    18    1
    12     6    20    1
    13     7    15    1
    14     7    46    1
    15     8    21    2
    16     9    25    1
    17     9    31    1
    18    10    11    1
    19    10    12    1
    20    10    32    1
    21    11    13    1
    22    11    33    1
    23    12    14    1
    24    12    34    1
    25    13    15    1
    26    13    35    1
    27    14    36    1
    28    15    37    1
    29    15    38    1
    30    16    17   ar
    31    16    22   ar
    32    17    20   ar
    33    17    21    1
    34    18    19    1
    35    18    23    1
    36    18    42    1
    37    19    21    1
    38    19    43    1
    39    19    44    1
    40    20    24   ar
    41    22    25   ar
    42    22    45    1
    43    23    26   ar
    44    23    27   ar
    45    24    25   ar
    46    24    47    1
    47    26    28   ar
    48    26    48    1
    49    27    29   ar
    50    27    49    1
    51    28    30   ar
    52    28    50    1
    53    29    30   ar
    54    29    51    1
    55    30    52    1
    56    31    53    1
    57    31    54    1
    58    31    55    1
