@<TRIPOS>MOLECULE
IMPHY008728
 146 146 0 0 0
SMALL
GASTEIGER

@<TRIPOS>ATOM
      1 P           5.1350   -5.8450    0.0000 P.3     1  UNL1        0.4754
      2 O           4.2690   -6.3450    0.0000 O.3     1  UNL1       -0.2780
      3 O           2.5369   -7.3450    0.0000 O.3     1  UNL1       -0.3865
      4 O           6.0010   -7.3450    0.0000 O.3     1  UNL1       -0.3865
      5 O           2.5369   -9.3450    0.0000 O.3     1  UNL1       -0.3865
      6 O           6.0010   -9.3450    0.0000 O.3     1  UNL1       -0.3865
      7 O           4.2690  -10.3450    0.0000 O.3     1  UNL1       -0.3865
      8 O           6.0010   -5.3450    0.0000 O.3     1  UNL1       -0.2828
      9 O           4.6350   -4.9790    0.0000 O.3     1  UNL1       -0.3025
     10 O           5.6350   -6.7110    0.0000 O.2     1  UNL1       -0.2273
     11 O           6.8671   -2.8450    0.0000 O.3     1  UNL1       -0.4555
     12 O           8.5991   -3.8450    0.0000 O.3     1  UNL1       -0.4608
     13 O           8.5991   -2.8450    0.0000 O.2     1  UNL1       -0.2508
     14 O           9.4651   -5.3450    0.0000 O.2     1  UNL1       -0.2509
     15 C           4.2690   -7.3450    0.0000 C.3     1  UNL1        0.1266
     16 C           3.4030   -7.8450    0.0000 C.3     1  UNL1        0.1126
     17 C           5.1350   -7.8450    0.0000 C.3     1  UNL1        0.1126
     18 C           3.4030   -8.8450    0.0000 C.3     1  UNL1        0.1118
     19 C           5.1350   -8.8450    0.0000 C.3     1  UNL1        0.1118
     20 C           4.2690   -9.3450    0.0000 C.3     1  UNL1        0.1118
     21 C           6.0010   -4.3450    0.0000 C.3     1  UNL1        0.0993
     22 C           6.8671   -3.8450    0.0000 C.3     1  UNL1        0.1605
     23 C           7.7331   -4.3450    0.0000 C.3     1  UNL1        0.1315
     24 C          11.1972    3.6550    0.0000 C.3     1  UNL1       -0.0531
     25 C          10.3312    3.1550    0.0000 C.3     1  UNL1       -0.0531
     26 C          11.1972    4.6550    0.0000 C.3     1  UNL1       -0.0531
     27 C          16.3933   -4.3450    0.0000 C.3     1  UNL1       -0.0531
     28 C          17.2594   -3.8450    0.0000 C.3     1  UNL1       -0.0531
     29 C          10.3312    2.1550    0.0000 C.3     1  UNL1       -0.0531
     30 C          15.5273   -3.8450    0.0000 C.3     1  UNL1       -0.0531
     31 C          12.0632    5.1550    0.0000 C.3     1  UNL1       -0.0531
     32 C          18.1254   -4.3450    0.0000 C.3     1  UNL1       -0.0531
     33 C          14.6613   -4.3450    0.0000 C.3     1  UNL1       -0.0531
     34 C           9.4651    1.6550    0.0000 C.3     1  UNL1       -0.0531
     35 C          12.0632    6.1550    0.0000 C.3     1  UNL1       -0.0531
     36 C          18.9914   -3.8450    0.0000 C.3     1  UNL1       -0.0531
     37 C          13.7953   -3.8450    0.0000 C.3     1  UNL1       -0.0531
     38 C           9.4651    0.6550    0.0000 C.3     1  UNL1       -0.0530
     39 C          12.9292    6.6550    0.0000 C.3     1  UNL1       -0.0531
     40 C          19.8574   -4.3450    0.0000 C.3     1  UNL1       -0.0531
     41 C          12.9292   -4.3450    0.0000 C.3     1  UNL1       -0.0530
     42 C           8.5991    0.1550    0.0000 C.3     1  UNL1       -0.0526
     43 C          12.9292    7.6550    0.0000 C.3     1  UNL1       -0.0531
     44 C          20.7235   -3.8450    0.0000 C.3     1  UNL1       -0.0531
     45 C           8.5991   -0.8450    0.0000 C.3     1  UNL1       -0.0430
     46 C          12.0632   -3.8450    0.0000 C.3     1  UNL1       -0.0526
     47 C           7.7331   -1.3450    0.0000 C.3     1  UNL1        0.0450
     48 C          13.7953    8.1550    0.0000 C.3     1  UNL1       -0.0531
     49 C          11.1972   -4.3450    0.0000 C.3     1  UNL1       -0.0430
     50 C          21.5895   -4.3450    0.0000 C.3     1  UNL1       -0.0531
     51 C           7.7331   -2.3450    0.0000 C.2     1  UNL1        0.3075
     52 C          10.3312   -3.8450    0.0000 C.3     1  UNL1        0.0449
     53 C          13.7953    9.1550    0.0000 C.3     1  UNL1       -0.0533
     54 C          22.4555   -3.8450    0.0000 C.3     1  UNL1       -0.0533
     55 C           9.4651   -4.3450    0.0000 C.2     1  UNL1        0.3072
     56 C          14.6613    9.6550    0.0000 C.3     1  UNL1       -0.0559
     57 C          23.3215   -4.3450    0.0000 C.3     1  UNL1       -0.0559
     58 C          14.6613   10.6550    0.0000 C.3     1  UNL1       -0.0653
     59 C          24.1876   -3.8450    0.0000 C.3     1  UNL1       -0.0653
     60 H           4.8059   -7.0350    0.0000 H       1  UNL1        0.0655
     61 H           3.4030   -7.2250    0.0000 H       1  UNL1        0.0647
     62 H           5.6720   -8.1550    0.0000 H       1  UNL1        0.0647
     63 H           3.4030   -9.4650    0.0000 H       1  UNL1        0.0647
     64 H           5.1350   -9.4650    0.0000 H       1  UNL1        0.0647
     65 H           3.7320   -9.6550    0.0000 H       1  UNL1        0.0647
     66 H           2.0000   -7.6550    0.0000 H       1  UNL1        0.2100
     67 H           6.5380   -7.6550    0.0000 H       1  UNL1        0.2100
     68 H           2.5369   -9.9650    0.0000 H       1  UNL1        0.2100
     69 H           6.0010   -9.9650    0.0000 H       1  UNL1        0.2100
     70 H           3.7320  -10.6550    0.0000 H       1  UNL1        0.2100
     71 H           4.0150   -4.9790    0.0000 H       1  UNL1        0.2220
     72 H           5.7890   -3.7624    0.0000 H       1  UNL1        0.0604
     73 H           5.3905   -4.4527    0.0000 H       1  UNL1        0.0604
     74 H           6.3301   -3.5350    0.0000 H       1  UNL1        0.0792
     75 H          11.4092    3.0724    0.0000 H       1  UNL1        0.0265
     76 H          11.8078    3.7627    0.0000 H       1  UNL1        0.0265
     77 H          10.1191    3.7376    0.0000 H       1  UNL1        0.0265
     78 H           9.7206    3.0473    0.0000 H       1  UNL1        0.0265
     79 H           7.3346   -4.8200    0.0000 H       1  UNL1        0.0736
     80 H           8.1316   -4.8200    0.0000 H       1  UNL1        0.0736
     81 H          10.9851    5.2376    0.0000 H       1  UNL1        0.0265
     82 H          10.5866    4.5473    0.0000 H       1  UNL1        0.0265
     83 H          15.9948   -4.8200    0.0000 H       1  UNL1        0.0265
     84 H          16.7919   -4.8200    0.0000 H       1  UNL1        0.0265
     85 H          17.6579   -3.3700    0.0000 H       1  UNL1        0.0265
     86 H          16.8608   -3.3700    0.0000 H       1  UNL1        0.0265
     87 H          10.5432    1.5724    0.0000 H       1  UNL1        0.0265
     88 H          10.9417    2.2627    0.0000 H       1  UNL1        0.0265
     89 H          15.9258   -3.3700    0.0000 H       1  UNL1        0.0265
     90 H          15.1288   -3.3700    0.0000 H       1  UNL1        0.0265
     91 H          12.2753    4.5724    0.0000 H       1  UNL1        0.0265
     92 H          12.6738    5.2627    0.0000 H       1  UNL1        0.0265
     93 H          17.7269   -4.8200    0.0000 H       1  UNL1        0.0265
     94 H          18.5239   -4.8200    0.0000 H       1  UNL1        0.0265
     95 H          14.2628   -4.8200    0.0000 H       1  UNL1        0.0265
     96 H          15.0598   -4.8200    0.0000 H       1  UNL1        0.0265
     97 H           9.2531    2.2376    0.0000 H       1  UNL1        0.0265
     98 H           8.8546    1.5473    0.0000 H       1  UNL1        0.0265
     99 H          11.8512    6.7376    0.0000 H       1  UNL1        0.0265
    100 H          11.4526    6.0473    0.0000 H       1  UNL1        0.0265
    101 H          19.3899   -3.3700    0.0000 H       1  UNL1        0.0265
    102 H          18.5929   -3.3700    0.0000 H       1  UNL1        0.0265
    103 H          14.1938   -3.3700    0.0000 H       1  UNL1        0.0265
    104 H          13.3967   -3.3700    0.0000 H       1  UNL1        0.0265
    105 H           9.6772    0.0724    0.0000 H       1  UNL1        0.0265
    106 H          10.0757    0.7627    0.0000 H       1  UNL1        0.0265
    107 H          13.1413    6.0724    0.0000 H       1  UNL1        0.0265
    108 H          13.5398    6.7627    0.0000 H       1  UNL1        0.0265
    109 H          19.4589   -4.8200    0.0000 H       1  UNL1        0.0265
    110 H          20.2560   -4.8200    0.0000 H       1  UNL1        0.0265
    111 H          12.5307   -4.8200    0.0000 H       1  UNL1        0.0265
    112 H          13.3278   -4.8200    0.0000 H       1  UNL1        0.0265
    113 H           8.3871    0.7376    0.0000 H       1  UNL1        0.0265
    114 H           7.9885    0.0473    0.0000 H       1  UNL1        0.0265
    115 H          12.7172    8.2376    0.0000 H       1  UNL1        0.0265
    116 H          12.3187    7.5473    0.0000 H       1  UNL1        0.0265
    117 H          21.1220   -3.3700    0.0000 H       1  UNL1        0.0265
    118 H          20.3249   -3.3700    0.0000 H       1  UNL1        0.0265
    119 H           8.8112   -1.4276    0.0000 H       1  UNL1        0.0270
    120 H           9.2097   -0.7373    0.0000 H       1  UNL1        0.0270
    121 H          12.4617   -3.3700    0.0000 H       1  UNL1        0.0265
    122 H          11.6647   -3.3700    0.0000 H       1  UNL1        0.0265
    123 H           7.5210   -0.7624    0.0000 H       1  UNL1        0.0377
    124 H           7.1225   -1.4527    0.0000 H       1  UNL1        0.0377
    125 H          14.0073    7.5724    0.0000 H       1  UNL1        0.0265
    126 H          14.4058    8.2627    0.0000 H       1  UNL1        0.0265
    127 H          10.7987   -4.8200    0.0000 H       1  UNL1        0.0270
    128 H          11.5957   -4.8200    0.0000 H       1  UNL1        0.0270
    129 H          21.1910   -4.8200    0.0000 H       1  UNL1        0.0265
    130 H          21.9880   -4.8200    0.0000 H       1  UNL1        0.0265
    131 H          10.7297   -3.3700    0.0000 H       1  UNL1        0.0377
    132 H           9.9326   -3.3700    0.0000 H       1  UNL1        0.0377
    133 H          13.5832    9.7376    0.0000 H       1  UNL1        0.0265
    134 H          13.1847    9.0473    0.0000 H       1  UNL1        0.0265
    135 H          22.8540   -3.3700    0.0000 H       1  UNL1        0.0265
    136 H          22.0570   -3.3700    0.0000 H       1  UNL1        0.0265
    137 H          14.8733    9.0724    0.0000 H       1  UNL1        0.0263
    138 H          15.2719    9.7627    0.0000 H       1  UNL1        0.0263
    139 H          22.9230   -4.8200    0.0000 H       1  UNL1        0.0263
    140 H          23.7201   -4.8200    0.0000 H       1  UNL1        0.0263
    141 H          15.2813   10.6550    0.0000 H       1  UNL1        0.0230
    142 H          14.6613   11.2750    0.0000 H       1  UNL1        0.0230
    143 H          14.0413   10.6550    0.0000 H       1  UNL1        0.0230
    144 H          24.4976   -4.3819    0.0000 H       1  UNL1        0.0230
    145 H          24.7245   -3.5350    0.0000 H       1  UNL1        0.0230
    146 H          23.8776   -3.3081    0.0000 H       1  UNL1        0.0230
@<TRIPOS>BOND
     1     1     2    1
     2     1     8    1
     3     1     9    1
     4     1    10    2
     5     2    15    1
     6     3    16    1
     7     3    66    1
     8     4    17    1
     9     4    67    1
    10     5    18    1
    11     5    68    1
    12     6    19    1
    13     6    69    1
    14     7    20    1
    15     7    70    1
    16     8    21    1
    17     9    71    1
    18    11    22    1
    19    11    51    1
    20    12    23    1
    21    12    55    1
    22    13    51    2
    23    14    55    2
    24    15    16    1
    25    15    17    1
    26    15    60    1
    27    16    18    1
    28    16    61    1
    29    17    19    1
    30    17    62    1
    31    18    20    1
    32    18    63    1
    33    19    20    1
    34    19    64    1
    35    20    65    1
    36    21    22    1
    37    21    72    1
    38    21    73    1
    39    22    23    1
    40    22    74    1
    41    23    79    1
    42    23    80    1
    43    24    25    1
    44    24    26    1
    45    24    75    1
    46    24    76    1
    47    25    29    1
    48    25    77    1
    49    25    78    1
    50    26    31    1
    51    26    81    1
    52    26    82    1
    53    27    28    1
    54    27    30    1
    55    27    83    1
    56    27    84    1
    57    28    32    1
    58    28    85    1
    59    28    86    1
    60    29    34    1
    61    29    87    1
    62    29    88    1
    63    30    33    1
    64    30    89    1
    65    30    90    1
    66    31    35    1
    67    31    91    1
    68    31    92    1
    69    32    36    1
    70    32    93    1
    71    32    94    1
    72    33    37    1
    73    33    95    1
    74    33    96    1
    75    34    38    1
    76    34    97    1
    77    34    98    1
    78    35    39    1
    79    35    99    1
    80    35   100    1
    81    36    40    1
    82    36   101    1
    83    36   102    1
    84    37    41    1
    85    37   103    1
    86    37   104    1
    87    38    42    1
    88    38   105    1
    89    38   106    1
    90    39    43    1
    91    39   107    1
    92    39   108    1
    93    40    44    1
    94    40   109    1
    95    40   110    1
    96    41    46    1
    97    41   111    1
    98    41   112    1
    99    42    45    1
   100    42   113    1
   101    42   114    1
   102    43    48    1
   103    43   115    1
   104    43   116    1
   105    44    50    1
   106    44   117    1
   107    44   118    1
   108    45    47    1
   109    45   119    1
   110    45   120    1
   111    46    49    1
   112    46   121    1
   113    46   122    1
   114    47    51    1
   115    47   123    1
   116    47   124    1
   117    48    53    1
   118    48   125    1
   119    48   126    1
   120    49    52    1
   121    49   127    1
   122    49   128    1
   123    50    54    1
   124    50   129    1
   125    50   130    1
   126    52    55    1
   127    52   131    1
   128    52   132    1
   129    53    56    1
   130    53   133    1
   131    53   134    1
   132    54    57    1
   133    54   135    1
   134    54   136    1
   135    56    58    1
   136    56   137    1
   137    56   138    1
   138    57    59    1
   139    57   139    1
   140    57   140    1
   141    58   141    1
   142    58   142    1
   143    58   143    1
   144    59   144    1
   145    59   145    1
   146    59   146    1
