@<TRIPOS>MOLECULE
IMPHY005861
 73 79 0 0 0
SMALL
GASTEIGER

@<TRIPOS>ATOM
      1 O           5.4880    0.3010    0.0000 O.3     1  UNL1       -0.4571
      2 O           7.0168   -1.5740    0.0000 O.3     1  UNL1       -0.3873
      3 O           9.6419    0.8083    0.0000 O.3     1  UNL1       -0.3791
      4 O           9.8855   -1.8649    0.0000 O.3     1  UNL1       -0.4611
      5 O          10.3317   -0.2876    0.0000 O.2     1  UNL1       -0.2504
      6 O           5.5114   -1.4309    0.0000 O.2     1  UNL1       -0.2450
      7 N           6.1543    0.7947    0.0000 N.3     1  UNL1       -0.2980
      8 C           7.9098    0.8083    0.0000 C.3     1  UNL1        0.0234
      9 C           7.0438    1.3083    0.0000 C.3     1  UNL1        0.0128
     10 C           7.0360    0.2902    0.0000 C.3     1  UNL1        0.0279
     11 C           7.0705   -0.6638    0.0000 C.3     1  UNL1        0.0422
     12 C           8.7303    0.3202    0.0000 C.3     1  UNL1       -0.0123
     13 C           7.0438    2.3083    0.0000 C.3     1  UNL1       -0.0124
     14 C           6.4878    0.3145    0.0000 C.3     1  UNL1        0.1143
     15 C           7.9084   -1.1213    0.0000 C.3     1  UNL1        0.0870
     16 C           8.7296   -0.6344    0.0000 C.3     1  UNL1        0.0890
     17 C           8.7758    1.3083    0.0000 C.3     1  UNL1        0.0661
     18 C           6.1582    1.8106    0.0000 C.3     1  UNL1        0.0050
     19 C           7.9098    2.8083    0.0000 C.3     1  UNL1       -0.0437
     20 C           8.1925   -1.3453    0.0000 C.3     1  UNL1       -0.0113
     21 C           8.7758    2.3083    0.0000 C.3     1  UNL1       -0.0255
     22 C           7.7858   -2.0495    0.0000 C.3     1  UNL1       -0.0194
     23 C           9.3660   -2.6439    0.0000 C.3     1  UNL1        0.1035
     24 C           6.5488    3.1772    0.0000 C.3     1  UNL1       -0.0580
     25 C           8.4333   -2.7259    0.0000 C.3     1  UNL1       -0.0130
     26 C           9.6028   -0.9723    0.0000 C.2     1  UNL1        0.3135
     27 C           5.1695    0.9684    0.0000 C.3     1  UNL1       -0.0036
     28 C           4.8276    1.9082    0.0000 C.3     1  UNL1       -0.0523
     29 C           4.9997   -0.5717    0.0000 C.2     1  UNL1        0.3395
     30 C          10.5079    1.3083    0.0000 C.3     1  UNL1        0.0368
     31 C           3.9998   -0.5853    0.0000 C.ar    1  UNL1        0.0590
     32 C           3.4881    0.2739    0.0000 C.ar    1  UNL1       -0.0478
     33 C           3.5116   -1.4580    0.0000 C.ar    1  UNL1       -0.0478
     34 C           2.4882    0.2603    0.0000 C.ar    1  UNL1       -0.0610
     35 C           2.5117   -1.4716    0.0000 C.ar    1  UNL1       -0.0610
     36 C           2.0000   -0.6124    0.0000 C.ar    1  UNL1       -0.0617
     37 H           7.7741    1.7432    0.0000 H       1  UNL1        0.0349
     38 H           7.7821   -0.1171    0.0000 H       1  UNL1        0.0474
     39 H           6.4808   -1.2760    0.0000 H       1  UNL1        0.0380
     40 H           9.4693    0.7402    0.0000 H       1  UNL1        0.0317
     41 H           6.1706    0.8472    0.0000 H       1  UNL1        0.0741
     42 H           8.8000   -1.4815    0.0000 H       1  UNL1        0.0445
     43 H           9.3128    1.6183    0.0000 H       1  UNL1        0.0602
     44 H           5.9514    2.3951    0.0000 H       1  UNL1        0.0432
     45 H           5.5470    1.7068    0.0000 H       1  UNL1        0.0432
     46 H           8.3083    3.2832    0.0000 H       1  UNL1        0.0272
     47 H           7.5113    3.2832    0.0000 H       1  UNL1        0.0272
     48 H           7.6445   -1.0553    0.0000 H       1  UNL1        0.0304
     49 H           7.8117   -1.8346    0.0000 H       1  UNL1        0.0304
     50 H           9.3864    2.2006    0.0000 H       1  UNL1        0.0290
     51 H           8.9879    2.8909    0.0000 H       1  UNL1        0.0290
     52 H           7.2048   -1.8331    0.0000 H       1  UNL1        0.0294
     53 H           7.4450   -2.5675    0.0000 H       1  UNL1        0.0294
     54 H           9.7995   -3.3750    0.0000 H       1  UNL1        0.0734
     55 H           7.0875    3.4841    0.0000 H       1  UNL1        0.0236
     56 H           6.2419    3.7159    0.0000 H       1  UNL1        0.0236
     57 H           6.0101    2.8703    0.0000 H       1  UNL1        0.0236
     58 H           7.9010   -3.0437    0.0000 H       1  UNL1        0.0302
     59 H           8.6242   -3.3158    0.0000 H       1  UNL1        0.0302
     60 H           4.5589    0.8608    0.0000 H       1  UNL1        0.0424
     61 H           5.1695    0.3484    0.0000 H       1  UNL1        0.0424
     62 H           6.9835   -2.1932    0.0000 H       1  UNL1        0.2102
     63 H           5.4102    2.1202    0.0000 H       1  UNL1        0.0242
     64 H           4.6155    2.4908    0.0000 H       1  UNL1        0.0242
     65 H           4.2449    1.6962    0.0000 H       1  UNL1        0.0242
     66 H          10.8179    0.7713    0.0000 H       1  UNL1        0.0524
     67 H          11.0448    1.6183    0.0000 H       1  UNL1        0.0524
     68 H          10.1979    1.8452    0.0000 H       1  UNL1        0.0524
     69 H           3.7908    0.8150    0.0000 H       1  UNL1        0.0626
     70 H           3.8288   -1.9907    0.0000 H       1  UNL1        0.0626
     71 H           2.1710    0.7930    0.0000 H       1  UNL1        0.0618
     72 H           2.2090   -2.0126    0.0000 H       1  UNL1        0.0618
     73 H           1.3801   -0.6208    0.0000 H       1  UNL1        0.0618
@<TRIPOS>BOND
     1    14     1    1
     2     1    29    1
     3    15     2    1
     4     2    62    1
     5     3    17    1
     6     3    30    1
     7     4    23    1
     8     4    26    1
     9     5    26    2
    10     6    29    2
    11     7    10    1
    12     7    18    1
    13     7    27    1
    14     8     9    1
    15     8    10    1
    16     8    12    1
    17     8    17    1
    18     9    13    1
    19     9    14    1
    20     9    37    1
    21    10    11    1
    22    10    38    1
    23    11    14    1
    24    11    15    1
    25    11    39    1
    26    12    16    1
    27    12    20    1
    28    12    40    1
    29    13    18    1
    30    13    19    1
    31    13    24    1
    32    14    41    1
    33    15    16    1
    34    15    22    1
    35    16    26    1
    36    16    42    1
    37    17    21    1
    38    17    43    1
    39    18    44    1
    40    18    45    1
    41    19    21    1
    42    19    46    1
    43    19    47    1
    44    20    23    1
    45    20    48    1
    46    20    49    1
    47    21    50    1
    48    21    51    1
    49    22    25    1
    50    22    52    1
    51    22    53    1
    52    23    25    1
    53    23    54    1
    54    24    55    1
    55    24    56    1
    56    24    57    1
    57    25    58    1
    58    25    59    1
    59    27    28    1
    60    27    60    1
    61    27    61    1
    62    28    63    1
    63    28    64    1
    64    28    65    1
    65    29    31    1
    66    30    66    1
    67    30    67    1
    68    30    68    1
    69    31    32   ar
    70    31    33   ar
    71    32    34   ar
    72    32    69    1
    73    33    35   ar
    74    33    70    1
    75    34    36   ar
    76    34    71    1
    77    35    36   ar
    78    35    72    1
    79    36    73    1
