@<TRIPOS>MOLECULE
IMPHY015413
 30 29 0 0 0
SMALL
GASTEIGER

@<TRIPOS>ATOM
      1 O           8.9282    1.2500    0.0000 O.2     1  UNL1       -0.2977
      2 C           5.4641    0.2500    0.0000 C.3     1  UNL1       -0.0317
      3 C           4.5981   -0.2500    0.0000 C.3     1  UNL1       -0.0459
      4 C           6.3301   -0.2500    0.0000 C.2     1  UNL1       -0.0762
      5 C           7.1962    0.2500    0.0000 C.3     1  UNL1       -0.0253
      6 C           8.0622   -0.2500    0.0000 C.3     1  UNL1        0.0092
      7 C           3.7320    0.2500    0.0000 C.3     1  UNL1       -0.0347
      8 C           8.9282    0.2500    0.0000 C.2     1  UNL1        0.1306
      9 C           6.3301   -1.2500    0.0000 C.2     1  UNL1       -0.0994
     10 C           2.8660   -0.2500    0.0000 C.2     1  UNL1       -0.0911
     11 C           9.7942   -0.2500    0.0000 C.3     1  UNL1       -0.0061
     12 C           2.0000    0.2500    0.0000 C.2     1  UNL1       -0.1026
     13 H           5.8626    0.7249    0.0000 H       1  UNL1        0.0310
     14 H           5.0656    0.7249    0.0000 H       1  UNL1        0.0310
     15 H           4.1996   -0.7249    0.0000 H       1  UNL1        0.0271
     16 H           4.9966   -0.7249    0.0000 H       1  UNL1        0.0271
     17 H           7.5947    0.7249    0.0000 H       1  UNL1        0.0314
     18 H           6.7976    0.7249    0.0000 H       1  UNL1        0.0314
     19 H           7.6636   -0.7249    0.0000 H       1  UNL1        0.0345
     20 H           8.4607   -0.7249    0.0000 H       1  UNL1        0.0345
     21 H           4.1306    0.7249    0.0000 H       1  UNL1        0.0307
     22 H           3.3335    0.7249    0.0000 H       1  UNL1        0.0307
     23 H           5.7932   -1.5600    0.0000 H       1  UNL1        0.0534
     24 H           6.8671   -1.5600    0.0000 H       1  UNL1        0.0534
     25 H           2.8660   -0.8700    0.0000 H       1  UNL1        0.0566
     26 H           9.4842   -0.7869    0.0000 H       1  UNL1        0.0306
     27 H          10.3312   -0.5600    0.0000 H       1  UNL1        0.0306
     28 H          10.1042    0.2869    0.0000 H       1  UNL1        0.0306
     29 H           2.0000    0.8700    0.0000 H       1  UNL1        0.0532
     30 H           1.4631   -0.0600    0.0000 H       1  UNL1        0.0532
@<TRIPOS>BOND
     1     1     8    2
     2     2     3    1
     3     2     4    1
     4     2    13    1
     5     2    14    1
     6     3     7    1
     7     3    15    1
     8     3    16    1
     9     4     5    1
    10     4     9    2
    11     5     6    1
    12     5    17    1
    13     5    18    1
    14     6     8    1
    15     6    19    1
    16     6    20    1
    17     7    10    1
    18     7    21    1
    19     7    22    1
    20     8    11    1
    21     9    23    1
    22     9    24    1
    23    10    12    2
    24    10    25    1
    25    11    26    1
    26    11    27    1
    27    11    28    1
    28    12    29    1
    29    12    30    1
