@<TRIPOS>MOLECULE
IMPHY010546
 77 81 0 0 0
SMALL
GASTEIGER

@<TRIPOS>ATOM
      1 O          10.3312   -3.4092    0.0000 O.3     1  UNL1       -0.3302
      2 O           8.5991   -5.4092    0.0000 O.3     1  UNL1       -0.3864
      3 O          10.3312   -6.4092    0.0000 O.3     1  UNL1       -0.3864
      4 O          12.0632   -3.4092    0.0000 O.3     1  UNL1       -0.4570
      5 O          12.0632   -5.4092    0.0000 O.3     1  UNL1       -0.3829
      6 O           7.7331   -3.9092    0.0000 O.3     1  UNL1       -0.4619
      7 O           4.6350   -4.2752    0.0000 O.3     1  UNL1       -0.3878
      8 O           6.8671   -2.4092    0.0000 O.2     1  UNL1       -0.2507
      9 O          10.3312   -2.4092    0.0000 O.3     1  UNL1       -0.4914
     10 O          13.8392   -0.4024    0.0000 O.2     1  UNL1       -0.4195
     11 O           2.5369   -2.9092    0.0000 O.3     1  UNL1       -0.4805
     12 O           3.4030   -4.4092    0.0000 O.2     1  UNL1       -0.2509
     13 O          12.9413    2.1600    0.0000 O.3     1  UNL1       -0.4487
     14 O          14.7152    1.1359    0.0000 O.2     1  UNL1       -0.2410
     15 O          11.2136    5.1949    0.0000 O.2     1  UNL1       -0.4220
     16 O          10.3136    6.7192    0.0000 O.2     1  UNL1       -0.2452
     17 C           9.4651   -4.9092    0.0000 C.3     1  UNL1        0.1130
     18 C          10.3312   -5.4092    0.0000 C.3     1  UNL1        0.1152
     19 C           9.4651   -3.9092    0.0000 C.3     1  UNL1        0.1250
     20 C          11.1972   -4.9092    0.0000 C.3     1  UNL1        0.1454
     21 C          11.1972   -3.9092    0.0000 C.3     1  UNL1        0.2310
     22 C           8.5991   -3.4092    0.0000 C.3     1  UNL1        0.1212
     23 C          12.0632   -2.4092    0.0000 C.ar    1  UNL1        0.1689
     24 C           5.1350   -3.4092    0.0000 C.3     1  UNL1        0.0834
     25 C           6.0010   -3.9092    0.0000 C.3     1  UNL1        0.0739
     26 C           6.8671   -3.4092    0.0000 C.2     1  UNL1        0.3099
     27 C          11.1972   -1.9092    0.0000 C.ar    1  UNL1        0.1624
     28 C           4.2690   -2.9092    0.0000 C.3     1  UNL1        0.0738
     29 C          12.9292   -1.9092    0.0000 C.ar    1  UNL1        0.0269
     30 C           5.6350   -2.5432    0.0000 C.3     1  UNL1       -0.0350
     31 C          12.9292   -0.9092    0.0000 C.ar    1  UNL1        0.1430
     32 C          11.1972   -0.9092    0.0000 C.ar    1  UNL1       -0.0055
     33 C          12.0632   -0.4092    0.0000 C.ar    1  UNL1        0.0248
     34 C           3.4030   -3.4092    0.0000 C.2     1  UNL1        0.3075
     35 C          12.0472    0.6323    0.0000 C.ar    1  UNL1       -0.0014
     36 C          12.9452    1.1600    0.0000 C.ar    1  UNL1        0.2130
     37 C          13.8473    0.6392    0.0000 C.ar    1  UNL1        0.3801
     38 C           9.4651   -1.9092    0.0000 C.3     1  UNL1        0.0790
     39 C          12.0734    2.6567    0.0000 C.ar    1  UNL1        0.1323
     40 C          12.0695    3.6567    0.0000 C.ar    1  UNL1        0.0237
     41 C          11.2093    2.1534    0.0000 C.ar    1  UNL1       -0.0185
     42 C          11.2016    4.1534    0.0000 C.ar    1  UNL1        0.1425
     43 C          10.3375    3.6500    0.0000 C.ar    1  UNL1        0.0178
     44 C          10.3414    2.6500    0.0000 C.ar    1  UNL1       -0.0476
     45 C           9.4256    4.1534    0.0000 C.ar    1  UNL1       -0.0443
     46 C           9.4135    5.1949    0.0000 C.ar    1  UNL1        0.0236
     47 C          10.3136    5.7192    0.0000 C.ar    1  UNL1        0.3372
     48 H           9.4651   -5.5292    0.0000 H       1  UNL1        0.0647
     49 H          10.8681   -5.7192    0.0000 H       1  UNL1        0.0648
     50 H           9.4651   -3.2892    0.0000 H       1  UNL1        0.0658
     51 H          11.7341   -4.5992    0.0000 H       1  UNL1        0.0683
     52 H          11.1972   -3.2892    0.0000 H       1  UNL1        0.1084
     53 H           8.9976   -2.9343    0.0000 H       1  UNL1        0.0724
     54 H           8.2006   -2.9343    0.0000 H       1  UNL1        0.0724
     55 H           8.5991   -6.0292    0.0000 H       1  UNL1        0.2100
     56 H           9.7942   -6.7192    0.0000 H       1  UNL1        0.2100
     57 H          12.0632   -6.0292    0.0000 H       1  UNL1        0.2102
     58 H           5.6025   -4.3842    0.0000 H       1  UNL1        0.0406
     59 H           6.3996   -4.3842    0.0000 H       1  UNL1        0.0406
     60 H           4.6675   -2.4343    0.0000 H       1  UNL1        0.0406
     61 H           3.8705   -2.4343    0.0000 H       1  UNL1        0.0406
     62 H          13.4662   -2.2192    0.0000 H       1  UNL1        0.0692
     63 H           6.1720   -2.8532    0.0000 H       1  UNL1        0.0257
     64 H           5.9450   -2.0062    0.0000 H       1  UNL1        0.0257
     65 H           5.0981   -2.2332    0.0000 H       1  UNL1        0.0257
     66 H          10.6603   -0.5992    0.0000 H       1  UNL1        0.0662
     67 H           4.9450   -4.8122    0.0000 H       1  UNL1        0.2102
     68 H          11.5067    0.9361    0.0000 H       1  UNL1        0.0664
     69 H           9.7751   -1.3723    0.0000 H       1  UNL1        0.0660
     70 H           8.9282   -1.5992    0.0000 H       1  UNL1        0.0660
     71 H           9.1551   -2.4461    0.0000 H       1  UNL1        0.0660
     72 H           2.0000   -3.2192    0.0000 H       1  UNL1        0.2951
     73 H          12.6053    3.9688    0.0000 H       1  UNL1        0.0691
     74 H          11.2117    1.5334    0.0000 H       1  UNL1        0.0654
     75 H           9.8056    2.3380    0.0000 H       1  UNL1        0.0626
     76 H           8.8935    3.8351    0.0000 H       1  UNL1        0.0627
     77 H           8.8742    5.5008    0.0000 H       1  UNL1        0.0689
@<TRIPOS>BOND
     1     1    19    1
     2     1    21    1
     3    17     2    1
     4     2    55    1
     5    18     3    1
     6     3    56    1
     7    21     4    1
     8     4    23    1
     9    20     5    1
    10     5    57    1
    11     6    22    1
    12     6    26    1
    13     7    24    1
    14     7    67    1
    15     8    26    2
    16     9    27    1
    17     9    38    1
    18    10    31   ar
    19    10    37   ar
    20    11    34    1
    21    11    72    1
    22    12    34    2
    23    13    36    1
    24    13    39    1
    25    14    37    2
    26    15    42   ar
    27    15    47   ar
    28    16    47    2
    29    17    18    1
    30    17    19    1
    31    17    48    1
    32    18    20    1
    33    18    49    1
    34    19    22    1
    35    19    50    1
    36    20    21    1
    37    20    51    1
    38    21    52    1
    39    22    53    1
    40    22    54    1
    41    23    27   ar
    42    23    29   ar
    43    24    25    1
    44    24    28    1
    45    24    30    1
    46    25    26    1
    47    25    58    1
    48    25    59    1
    49    27    32   ar
    50    28    34    1
    51    28    60    1
    52    28    61    1
    53    29    31   ar
    54    29    62    1
    55    30    63    1
    56    30    64    1
    57    30    65    1
    58    31    33   ar
    59    32    33   ar
    60    32    66    1
    61    33    35   ar
    62    35    36   ar
    63    35    68    1
    64    36    37   ar
    65    38    69    1
    66    38    70    1
    67    38    71    1
    68    39    40   ar
    69    39    41   ar
    70    40    42   ar
    71    40    73    1
    72    41    44   ar
    73    41    74    1
    74    42    43   ar
    75    43    44   ar
    76    43    45   ar
    77    44    75    1
    78    45    46   ar
    79    45    76    1
    80    46    47   ar
    81    46    77    1
