@<TRIPOS>MOLECULE
IMPHY007892
 37 39 0 0 0
SMALL
GASTEIGER

@<TRIPOS>ATOM
      1 O           6.0290   -0.9259    0.0000 O.3     1  UNL1       -0.4826
      2 O           6.0174    2.1433    0.0000 O.2     1  UNL1       -0.2917
      3 O           4.2690    2.1087    0.0000 O.3     1  UNL1       -0.5056
      4 O           2.5369   -0.8913    0.0000 O.3     1  UNL1       -0.5060
      5 C           6.9350   -0.4121    0.0000 C.3     1  UNL1        0.1322
      6 C           6.9350    0.6296    0.0000 C.3     1  UNL1        0.0520
      7 C           5.1350    0.6087    0.0000 C.ar    1  UNL1        0.1012
      8 C           5.1350   -0.3913    0.0000 C.ar    1  UNL1        0.1418
      9 C           6.0290    1.1434    0.0000 C.2     1  UNL1        0.1740
     10 C           4.2690   -0.8913    0.0000 C.ar    1  UNL1        0.0338
     11 C           7.7991   -0.9154    0.0000 C.ar    1  UNL1       -0.0069
     12 C           4.2690    1.1087    0.0000 C.ar    1  UNL1        0.1372
     13 C           3.4030    0.6087    0.0000 C.ar    1  UNL1        0.0335
     14 C           3.4030   -0.3913    0.0000 C.ar    1  UNL1        0.1296
     15 C           4.2690   -1.8913    0.0000 C.3     1  UNL1       -0.0327
     16 C           7.7953   -1.9154    0.0000 C.ar    1  UNL1       -0.0551
     17 C           8.6671   -0.4188    0.0000 C.ar    1  UNL1       -0.0551
     18 C           2.5369    1.1087    0.0000 C.3     1  UNL1       -0.0327
     19 C           8.6594   -2.4187    0.0000 C.ar    1  UNL1       -0.0614
     20 C           9.5312   -0.9221    0.0000 C.ar    1  UNL1       -0.0614
     21 C           9.5273   -1.9221    0.0000 C.ar    1  UNL1       -0.0617
     22 H           7.4726   -0.1031    0.0000 H       1  UNL1        0.0789
     23 H           7.5459    0.5235    0.0000 H       1  UNL1        0.0385
     24 H           7.1441    1.2132    0.0000 H       1  UNL1        0.0385
     25 H           3.6490   -1.8913    0.0000 H       1  UNL1        0.0280
     26 H           4.2690   -2.5113    0.0000 H       1  UNL1        0.0280
     27 H           4.8890   -1.8913    0.0000 H       1  UNL1        0.0280
     28 H           7.2571   -2.2233    0.0000 H       1  UNL1        0.0621
     29 H           8.6694    0.2012    0.0000 H       1  UNL1        0.0621
     30 H           2.8469    1.6457    0.0000 H       1  UNL1        0.0280
     31 H           2.0000    1.4187    0.0000 H       1  UNL1        0.0280
     32 H           2.2269    0.5718    0.0000 H       1  UNL1        0.0280
     33 H           8.6570   -3.0387    0.0000 H       1  UNL1        0.0618
     34 H          10.0693   -0.6142    0.0000 H       1  UNL1        0.0618
     35 H           3.7320    2.4187    0.0000 H       1  UNL1        0.2922
     36 H          10.0630   -2.2342    0.0000 H       1  UNL1        0.0618
     37 H           2.0000   -0.5813    0.0000 H       1  UNL1        0.2922
@<TRIPOS>BOND
     1     1     5    1
     2     1     8    1
     3     2     9    2
     4     3    12    1
     5     3    35    1
     6     4    14    1
     7     4    37    1
     8     5     6    1
     9     5    11    1
    10     5    22    1
    11     6     9    1
    12     6    23    1
    13     6    24    1
    14     7     8   ar
    15     7     9    1
    16     7    12   ar
    17     8    10   ar
    18    10    14   ar
    19    10    15    1
    20    11    16   ar
    21    11    17   ar
    22    12    13   ar
    23    13    14   ar
    24    13    18    1
    25    15    25    1
    26    15    26    1
    27    15    27    1
    28    16    19   ar
    29    16    28    1
    30    17    20   ar
    31    17    29    1
    32    18    30    1
    33    18    31    1
    34    18    32    1
    35    19    21   ar
    36    19    33    1
    37    20    21   ar
    38    20    34    1
    39    21    36    1
