@<TRIPOS>MOLECULE
IMPHY007587
 46 46 0 0 0
SMALL
GASTEIGER

@<TRIPOS>ATOM
      1 S           6.0010   -0.5950    0.0000 S.3     1  UNL1       -0.0728
      2 S           7.7331    2.4050    0.0000 S.3     1  UNL1        0.0672
      3 O           4.2690   -0.5950    0.0000 O.3     1  UNL1       -0.3549
      4 O           4.2690   -3.5950    0.0000 O.3     1  UNL1       -0.3865
      5 O           2.5369   -2.5950    0.0000 O.3     1  UNL1       -0.3865
      6 O           6.0010   -2.5950    0.0000 O.3     1  UNL1       -0.3857
      7 O           2.5369    0.4050    0.0000 O.3     1  UNL1       -0.3924
      8 O           6.8671    1.9050    0.0000 O.2     1  UNL1       -0.2480
      9 O           8.5991    2.9050    0.0000 O.co2   1  UNL1       -0.2572
     10 O           7.2331    3.2710    0.0000 O.2     1  UNL1       -0.3344
     11 O           8.2331    1.5390    0.0000 O.2     1  UNL1       -0.3344
     12 N           6.8671    0.9050    0.0000 N.2     1  UNL1       -0.0521
     13 C           4.2690   -2.5950    0.0000 C.3     1  UNL1        0.1126
     14 C           3.4030   -2.0950    0.0000 C.3     1  UNL1        0.1118
     15 C           5.1350   -2.0950    0.0000 C.3     1  UNL1        0.1192
     16 C           3.4030   -1.0950    0.0000 C.3     1  UNL1        0.1115
     17 C           5.1350   -1.0950    0.0000 C.3     1  UNL1        0.1384
     18 C           2.5369   -0.5950    0.0000 C.3     1  UNL1        0.0730
     19 C           6.0010    0.4050    0.0000 C.2     1  UNL1        0.1180
     20 C           5.1350    0.9050    0.0000 C.3     1  UNL1       -0.0009
     21 C           5.1350    1.9050    0.0000 C.3     1  UNL1       -0.0471
     22 C           4.2690    2.4050    0.0000 C.3     1  UNL1       -0.0529
     23 C           4.2690    3.4050    0.0000 C.3     1  UNL1       -0.0559
     24 C           3.4030    3.9050    0.0000 C.3     1  UNL1       -0.0653
     25 H           4.8059   -2.9050    0.0000 H       1  UNL1        0.0647
     26 H           3.4030   -2.7150    0.0000 H       1  UNL1        0.0647
     27 H           5.6720   -1.7850    0.0000 H       1  UNL1        0.0655
     28 H           3.4030   -0.4750    0.0000 H       1  UNL1        0.0646
     29 H           5.1350   -0.4750    0.0000 H       1  UNL1        0.0743
     30 H           1.9264   -0.4873    0.0000 H       1  UNL1        0.0584
     31 H           2.3249   -1.1776    0.0000 H       1  UNL1        0.0584
     32 H           3.7320   -3.9050    0.0000 H       1  UNL1        0.2100
     33 H           2.0000   -2.2850    0.0000 H       1  UNL1        0.2100
     34 H           6.5380   -2.2850    0.0000 H       1  UNL1        0.2100
     35 H           4.5244    1.0127    0.0000 H       1  UNL1        0.0334
     36 H           4.9230    0.3224    0.0000 H       1  UNL1        0.0334
     37 H           5.7456    1.7973    0.0000 H       1  UNL1        0.0269
     38 H           5.3471    2.4876    0.0000 H       1  UNL1        0.0269
     39 H           3.6584    2.5127    0.0000 H       1  UNL1        0.0265
     40 H           4.0569    1.8224    0.0000 H       1  UNL1        0.0265
     41 H           2.0000    0.7150    0.0000 H       1  UNL1        0.2095
     42 H           4.8796    3.2973    0.0000 H       1  UNL1        0.0263
     43 H           4.4810    3.9876    0.0000 H       1  UNL1        0.0263
     44 H           3.7130    4.4419    0.0000 H       1  UNL1        0.0230
     45 H           2.8660    4.2150    0.0000 H       1  UNL1        0.0230
     46 H           3.0930    3.3681    0.0000 H       1  UNL1        0.0230
@<TRIPOS>UNITY_ATOM_ATTR
9 1
charge -1
@<TRIPOS>BOND
     1    17     1    1
     2     1    19    1
     3     2     8    1
     4     2     9    1
     5     2    10    2
     6     2    11    2
     7     3    16    1
     8     3    17    1
     9    13     4    1
    10     4    32    1
    11    14     5    1
    12     5    33    1
    13    15     6    1
    14     6    34    1
    15     7    18    1
    16     7    41    1
    17     8    12    1
    18    12    19    2
    19    13    14    1
    20    13    15    1
    21    13    25    1
    22    14    16    1
    23    14    26    1
    24    15    17    1
    25    15    27    1
    26    16    18    1
    27    16    28    1
    28    17    29    1
    29    18    30    1
    30    18    31    1
    31    19    20    1
    32    20    21    1
    33    20    35    1
    34    20    36    1
    35    21    22    1
    36    21    37    1
    37    21    38    1
    38    22    23    1
    39    22    39    1
    40    22    40    1
    41    23    24    1
    42    23    42    1
    43    23    43    1
    44    24    44    1
    45    24    45    1
    46    24    46    1
