@<TRIPOS>MOLECULE
IMPHY000297
 48 51 0 0 0
SMALL
GASTEIGER

@<TRIPOS>ATOM
      1 O           2.0520    1.8137    0.0000 O.2     1  UNL1       -0.2669
      2 O           5.6405   -3.3232    0.0000 O.3     1  UNL1       -0.4914
      3 O           3.8372   -4.3830    0.0000 O.3     1  UNL1       -0.4914
      4 O           2.8963    3.3452    0.0000 O.3     1  UNL1       -0.4907
      5 O           4.6622    4.3830    0.0000 O.3     1  UNL1       -0.4914
      6 N           2.9180    0.3137    0.0000 N.ar    1  UNL1       -0.3072
      7 C           2.0080   -0.1931    0.0000 C.3     1  UNL1        0.0307
      8 C           2.0000   -1.2347    0.0000 C.3     1  UNL1       -0.0088
      9 C           3.7841   -0.1863    0.0000 C.ar    1  UNL1        0.0530
     10 C           2.9021   -1.7555    0.0000 C.ar    1  UNL1       -0.0329
     11 C           3.8001   -1.2278    0.0000 C.ar    1  UNL1        0.0055
     12 C           2.9180    1.3137    0.0000 C.ar    1  UNL1        0.2631
     13 C           4.6501    0.3137    0.0000 C.ar    1  UNL1       -0.0295
     14 C           3.7841    1.8137    0.0000 C.ar    1  UNL1        0.0919
     15 C           4.6501    1.3137    0.0000 C.ar    1  UNL1       -0.0070
     16 C           2.8937   -2.8405    0.0000 C.ar    1  UNL1       -0.0124
     17 C           4.7520   -1.7484    0.0000 C.ar    1  UNL1       -0.0069
     18 C           3.8334   -3.3830    0.0000 C.ar    1  UNL1        0.1618
     19 C           4.7688   -2.8333    0.0000 C.ar    1  UNL1        0.1621
     20 C           3.7680    2.8552    0.0000 C.ar    1  UNL1        0.1744
     21 C           5.5601    1.8206    0.0000 C.ar    1  UNL1       -0.0501
     22 C           4.6660    3.3830    0.0000 C.ar    1  UNL1        0.1623
     23 C           5.5681    2.8622    0.0000 C.ar    1  UNL1       -0.0157
     24 C           2.8847    4.3451    0.0000 C.3     1  UNL1        0.0790
     25 C           6.5007   -2.8132    0.0000 C.3     1  UNL1        0.0790
     26 C           2.9731   -4.8863    0.0000 C.3     1  UNL1        0.0790
     27 C           5.5263    4.8863    0.0000 C.3     1  UNL1        0.0790
     28 H           1.8035    0.3922    0.0000 H       1  UNL1        0.0496
     29 H           1.3964   -0.2945    0.0000 H       1  UNL1        0.0496
     30 H           1.3900   -1.1239    0.0000 H       1  UNL1        0.0331
     31 H           1.7864   -1.8168    0.0000 H       1  UNL1        0.0331
     32 H           5.1870    0.0037    0.0000 H       1  UNL1        0.0644
     33 H           2.3556   -3.1484    0.0000 H       1  UNL1        0.0658
     34 H           5.2829   -1.4281    0.0000 H       1  UNL1        0.0662
     35 H           6.0934    1.5044    0.0000 H       1  UNL1        0.0625
     36 H           6.1062    3.1701    0.0000 H       1  UNL1        0.0655
     37 H           3.5046    4.3523    0.0000 H       1  UNL1        0.0660
     38 H           2.8775    4.9651    0.0000 H       1  UNL1        0.0660
     39 H           2.2647    4.3380    0.0000 H       1  UNL1        0.0660
     40 H           6.8169   -3.3466    0.0000 H       1  UNL1        0.0660
     41 H           7.0340   -2.4971    0.0000 H       1  UNL1        0.0660
     42 H           6.1845   -2.2799    0.0000 H       1  UNL1        0.0660
     43 H           2.6610   -4.3506    0.0000 H       1  UNL1        0.0660
     44 H           2.4374   -5.1984    0.0000 H       1  UNL1        0.0660
     45 H           3.2852   -5.4221    0.0000 H       1  UNL1        0.0660
     46 H           5.8383    4.3506    0.0000 H       1  UNL1        0.0660
     47 H           6.0620    5.1984    0.0000 H       1  UNL1        0.0660
     48 H           5.2142    5.4220    0.0000 H       1  UNL1        0.0660
@<TRIPOS>BOND
     1     1    12    2
     2     2    19    1
     3     2    25    1
     4     3    18    1
     5     3    26    1
     6     4    20    1
     7     4    24    1
     8     5    22    1
     9     5    27    1
    10     6     7    1
    11     6     9   ar
    12     6    12   ar
    13     7     8    1
    14     7    28    1
    15     7    29    1
    16     8    10    1
    17     8    30    1
    18     8    31    1
    19     9    11    1
    20     9    13   ar
    21    10    11   ar
    22    10    16   ar
    23    11    17   ar
    24    12    14   ar
    25    13    15   ar
    26    13    32    1
    27    14    15   ar
    28    14    20   ar
    29    15    21   ar
    30    16    18   ar
    31    16    33    1
    32    17    19   ar
    33    17    34    1
    34    18    19   ar
    35    20    22   ar
    36    21    23   ar
    37    21    35    1
    38    22    23   ar
    39    23    36    1
    40    24    37    1
    41    24    38    1
    42    24    39    1
    43    25    40    1
    44    25    41    1
    45    25    42    1
    46    26    43    1
    47    26    44    1
    48    26    45    1
    49    27    46    1
    50    27    47    1
    51    27    48    1
