@<TRIPOS>MOLECULE
IMPHY005394
 59 61 0 0 0
SMALL
GASTEIGER

@<TRIPOS>ATOM
      1 O           9.4893   -0.4861    0.0000 O.3     1  UNL1       -0.4579
      2 O           6.0010    0.4050    0.0000 O.2     1  UNL1       -0.4701
      3 O           6.8671   -1.0950    0.0000 O.3     1  UNL1       -0.3094
      4 O           8.9900    2.6602    0.0000 O.3     1  UNL1       -0.3910
      5 O           5.1350   -1.0950    0.0000 O.3     1  UNL1       -0.3404
      6 O           6.0010    3.4050    0.0000 O.3     1  UNL1       -0.4646
      7 O           6.8671   -3.0950    0.0000 O.3     1  UNL1       -0.3841
      8 O           5.1350   -4.0950    0.0000 O.3     1  UNL1       -0.3864
      9 O           7.7331    3.4050    0.0000 O.2     1  UNL1       -0.2452
     10 O           3.4030   -3.0950    0.0000 O.3     1  UNL1       -0.3865
     11 O          10.5050    0.9169    0.0000 O.2     1  UNL1       -0.2511
     12 O           2.5369   -1.5950    0.0000 O.3     1  UNL1       -0.3924
     13 C           7.7331    0.4050    0.0000 C.3     1  UNL1        0.0707
     14 C           8.6793    0.1003    0.0000 C.3     1  UNL1        0.1222
     15 C           7.7331    1.4050    0.0000 C.3     1  UNL1        0.0321
     16 C           8.6793    1.7097    0.0000 C.3     1  UNL1        0.0665
     17 C           9.2629    0.9050    0.0000 C.3     1  UNL1        0.0141
     18 C           6.8671   -0.0950    0.0000 C.3     1  UNL1        0.2105
     19 C           6.8671    1.9050    0.0000 C.2     1  UNL1        0.0768
     20 C           8.3719   -0.8513    0.0000 C.3     1  UNL1       -0.0243
     21 C           6.0010    1.4050    0.0000 C.2     1  UNL1        0.0982
     22 C           6.0010   -1.5950    0.0000 C.3     1  UNL1        0.1918
     23 C           6.0010   -2.5950    0.0000 C.3     1  UNL1        0.1342
     24 C           6.8671    2.9050    0.0000 C.2     1  UNL1        0.3382
     25 C           5.1350   -3.0950    0.0000 C.3     1  UNL1        0.1141
     26 C           4.2690   -2.5950    0.0000 C.3     1  UNL1        0.1119
     27 C           4.2690   -1.5950    0.0000 C.3     1  UNL1        0.1130
     28 C          10.4022   -0.0778    0.0000 C.2     1  UNL1        0.3045
     29 C           3.4030   -1.0950    0.0000 C.3     1  UNL1        0.0730
     30 C          11.2122   -0.6642    0.0000 C.3     1  UNL1        0.0333
     31 C           6.0010    4.4050    0.0000 C.3     1  UNL1        0.0820
     32 H           7.8230   -0.4402    0.0000 H       1  UNL1        0.0407
     33 H           7.8230    2.2502    0.0000 H       1  UNL1        0.0383
     34 H           8.2418    2.1491    0.0000 H       1  UNL1        0.0601
     35 H           9.7238    0.4903    0.0000 H       1  UNL1        0.0329
     36 H           9.7238    1.3197    0.0000 H       1  UNL1        0.0329
     37 H           7.4040   -0.4050    0.0000 H       1  UNL1        0.1060
     38 H           7.7820   -0.6608    0.0000 H       1  UNL1        0.0268
     39 H           8.1814   -1.4413    0.0000 H       1  UNL1        0.0268
     40 H           8.9619   -1.0419    0.0000 H       1  UNL1        0.0268
     41 H           5.4641    1.7150    0.0000 H       1  UNL1        0.1029
     42 H           6.0010   -0.9750    0.0000 H       1  UNL1        0.0939
     43 H           9.5966    2.7881    0.0000 H       1  UNL1        0.2098
     44 H           6.0010   -3.2150    0.0000 H       1  UNL1        0.0671
     45 H           4.5981   -3.4050    0.0000 H       1  UNL1        0.0648
     46 H           4.2690   -3.2150    0.0000 H       1  UNL1        0.0647
     47 H           4.2690   -0.9750    0.0000 H       1  UNL1        0.0647
     48 H           3.8015   -0.6201    0.0000 H       1  UNL1        0.0584
     49 H           3.0044   -0.6201    0.0000 H       1  UNL1        0.0584
     50 H          10.8487   -1.1664    0.0000 H       1  UNL1        0.0342
     51 H          11.7144   -1.0277    0.0000 H       1  UNL1        0.0342
     52 H          11.5758   -0.1620    0.0000 H       1  UNL1        0.0342
     53 H           6.8671   -3.7150    0.0000 H       1  UNL1        0.2101
     54 H           4.5981   -4.4050    0.0000 H       1  UNL1        0.2100
     55 H           3.4030   -3.7150    0.0000 H       1  UNL1        0.2100
     56 H           6.6210    4.4050    0.0000 H       1  UNL1        0.0661
     57 H           6.0010    5.0250    0.0000 H       1  UNL1        0.0661
     58 H           5.3810    4.4050    0.0000 H       1  UNL1        0.0661
     59 H           2.0000   -1.2850    0.0000 H       1  UNL1        0.2095
@<TRIPOS>BOND
     1    14     1    1
     2     1    28    1
     3     2    18    1
     4     2    21    1
     5    18     3    1
     6    22     3    1
     7    16     4    1
     8     4    43    1
     9     5    22    1
    10     5    27    1
    11     6    24    1
    12     6    31    1
    13    23     7    1
    14     7    53    1
    15    25     8    1
    16     8    54    1
    17     9    24    2
    18    26    10    1
    19    10    55    1
    20    11    28    2
    21    12    29    1
    22    12    59    1
    23    13    14    1
    24    13    15    1
    25    13    18    1
    26    13    32    1
    27    14    17    1
    28    14    20    1
    29    15    16    1
    30    15    19    1
    31    15    33    1
    32    16    17    1
    33    16    34    1
    34    17    35    1
    35    17    36    1
    36    18    37    1
    37    19    21    2
    38    19    24    1
    39    20    38    1
    40    20    39    1
    41    20    40    1
    42    21    41    1
    43    22    23    1
    44    22    42    1
    45    23    25    1
    46    23    44    1
    47    25    26    1
    48    25    45    1
    49    26    27    1
    50    26    46    1
    51    27    29    1
    52    27    47    1
    53    28    30    1
    54    29    48    1
    55    29    49    1
    56    30    50    1
    57    30    51    1
    58    30    52    1
    59    31    56    1
    60    31    57    1
    61    31    58    1
