@<TRIPOS>MOLECULE
IMPHY009375
 68 67 0 0 0
SMALL
GASTEIGER

@<TRIPOS>ATOM
      1 C          10.6603   -0.2500    0.0000 C.3     1  UNL1       -0.0531
      2 C          11.5263    0.2500    0.0000 C.3     1  UNL1       -0.0531
      3 C           9.7942    0.2500    0.0000 C.3     1  UNL1       -0.0531
      4 C          12.3923   -0.2500    0.0000 C.3     1  UNL1       -0.0531
      5 C           8.9282   -0.2500    0.0000 C.3     1  UNL1       -0.0531
      6 C          13.2583    0.2500    0.0000 C.3     1  UNL1       -0.0531
      7 C           8.0622    0.2500    0.0000 C.3     1  UNL1       -0.0531
      8 C          14.1244   -0.2500    0.0000 C.3     1  UNL1       -0.0531
      9 C           7.1962   -0.2500    0.0000 C.3     1  UNL1       -0.0531
     10 C          14.9904    0.2500    0.0000 C.3     1  UNL1       -0.0531
     11 C           6.3301    0.2500    0.0000 C.3     1  UNL1       -0.0531
     12 C          15.8564   -0.2500    0.0000 C.3     1  UNL1       -0.0531
     13 C           5.4641   -0.2500    0.0000 C.3     1  UNL1       -0.0531
     14 C          16.7224    0.2500    0.0000 C.3     1  UNL1       -0.0531
     15 C           4.5981    0.2500    0.0000 C.3     1  UNL1       -0.0531
     16 C          17.5885   -0.2500    0.0000 C.3     1  UNL1       -0.0531
     17 C           3.7320   -0.2500    0.0000 C.3     1  UNL1       -0.0533
     18 C          18.4545    0.2500    0.0000 C.3     1  UNL1       -0.0533
     19 C           2.8660    0.2500    0.0000 C.3     1  UNL1       -0.0559
     20 C          19.3205   -0.2500    0.0000 C.3     1  UNL1       -0.0559
     21 C           2.0000   -0.2500    0.0000 C.3     1  UNL1       -0.0653
     22 C          20.1865    0.2500    0.0000 C.3     1  UNL1       -0.0653
     23 H          10.2617   -0.7249    0.0000 H       1  UNL1        0.0265
     24 H          11.0588   -0.7249    0.0000 H       1  UNL1        0.0265
     25 H          11.9248    0.7249    0.0000 H       1  UNL1        0.0265
     26 H          11.1278    0.7249    0.0000 H       1  UNL1        0.0265
     27 H          11.9938   -0.7249    0.0000 H       1  UNL1        0.0265
     28 H          12.7908   -0.7249    0.0000 H       1  UNL1        0.0265
     29 H          10.1928    0.7249    0.0000 H       1  UNL1        0.0265
     30 H           9.3957    0.7249    0.0000 H       1  UNL1        0.0265
     31 H           8.5297   -0.7249    0.0000 H       1  UNL1        0.0265
     32 H           9.3267   -0.7249    0.0000 H       1  UNL1        0.0265
     33 H          13.6569    0.7249    0.0000 H       1  UNL1        0.0265
     34 H          12.8598    0.7249    0.0000 H       1  UNL1        0.0265
     35 H          13.7258   -0.7249    0.0000 H       1  UNL1        0.0265
     36 H          14.5229   -0.7249    0.0000 H       1  UNL1        0.0265
     37 H           8.4607    0.7249    0.0000 H       1  UNL1        0.0265
     38 H           7.6636    0.7249    0.0000 H       1  UNL1        0.0265
     39 H          15.3889    0.7249    0.0000 H       1  UNL1        0.0265
     40 H          14.5919    0.7249    0.0000 H       1  UNL1        0.0265
     41 H           6.7976   -0.7249    0.0000 H       1  UNL1        0.0265
     42 H           7.5947   -0.7249    0.0000 H       1  UNL1        0.0265
     43 H           6.7287    0.7249    0.0000 H       1  UNL1        0.0265
     44 H           5.9316    0.7249    0.0000 H       1  UNL1        0.0265
     45 H          15.4579   -0.7249    0.0000 H       1  UNL1        0.0265
     46 H          16.2549   -0.7249    0.0000 H       1  UNL1        0.0265
     47 H           5.0656   -0.7249    0.0000 H       1  UNL1        0.0265
     48 H           5.8626   -0.7249    0.0000 H       1  UNL1        0.0265
     49 H          17.1210    0.7249    0.0000 H       1  UNL1        0.0265
     50 H          16.3239    0.7249    0.0000 H       1  UNL1        0.0265
     51 H          17.1899   -0.7249    0.0000 H       1  UNL1        0.0265
     52 H          17.9870   -0.7249    0.0000 H       1  UNL1        0.0265
     53 H           4.9966    0.7249    0.0000 H       1  UNL1        0.0265
     54 H           4.1996    0.7249    0.0000 H       1  UNL1        0.0265
     55 H           3.3335   -0.7249    0.0000 H       1  UNL1        0.0265
     56 H           4.1306   -0.7249    0.0000 H       1  UNL1        0.0265
     57 H          18.8530    0.7249    0.0000 H       1  UNL1        0.0265
     58 H          18.0560    0.7249    0.0000 H       1  UNL1        0.0265
     59 H          18.9220   -0.7249    0.0000 H       1  UNL1        0.0263
     60 H          19.7190   -0.7249    0.0000 H       1  UNL1        0.0263
     61 H           3.2646    0.7249    0.0000 H       1  UNL1        0.0263
     62 H           2.4675    0.7249    0.0000 H       1  UNL1        0.0263
     63 H           1.6900    0.2869    0.0000 H       1  UNL1        0.0230
     64 H           1.4631   -0.5600    0.0000 H       1  UNL1        0.0230
     65 H           2.3100   -0.7869    0.0000 H       1  UNL1        0.0230
     66 H          20.4965   -0.2869    0.0000 H       1  UNL1        0.0230
     67 H          20.7235    0.5600    0.0000 H       1  UNL1        0.0230
     68 H          19.8765    0.7869    0.0000 H       1  UNL1        0.0230
@<TRIPOS>BOND
     1     1     2    1
     2     1     3    1
     3     1    23    1
     4     1    24    1
     5     2     4    1
     6     2    25    1
     7     2    26    1
     8     3     5    1
     9     3    29    1
    10     3    30    1
    11     4     6    1
    12     4    27    1
    13     4    28    1
    14     5     7    1
    15     5    31    1
    16     5    32    1
    17     6     8    1
    18     6    33    1
    19     6    34    1
    20     7     9    1
    21     7    37    1
    22     7    38    1
    23     8    10    1
    24     8    35    1
    25     8    36    1
    26     9    11    1
    27     9    41    1
    28     9    42    1
    29    10    12    1
    30    10    39    1
    31    10    40    1
    32    11    13    1
    33    11    43    1
    34    11    44    1
    35    12    14    1
    36    12    45    1
    37    12    46    1
    38    13    15    1
    39    13    47    1
    40    13    48    1
    41    14    16    1
    42    14    49    1
    43    14    50    1
    44    15    17    1
    45    15    53    1
    46    15    54    1
    47    16    18    1
    48    16    51    1
    49    16    52    1
    50    17    19    1
    51    17    55    1
    52    17    56    1
    53    18    20    1
    54    18    57    1
    55    18    58    1
    56    19    21    1
    57    19    61    1
    58    19    62    1
    59    20    22    1
    60    20    59    1
    61    20    60    1
    62    21    63    1
    63    21    64    1
    64    21    65    1
    65    22    66    1
    66    22    67    1
    67    22    68    1
