@<TRIPOS>MOLECULE
IMPHY012246
 28 29 0 0 0
SMALL
GASTEIGER

@<TRIPOS>ATOM
      1 C           3.5388    0.3800    0.0000 C.3     1  UNL1       -0.0235
      2 C           3.5388   -0.6200    0.0000 C.3     1  UNL1       -0.0320
      3 C           4.4054   -0.1200    0.0000 C.3     1  UNL1       -0.0433
      4 C           2.5878   -0.9290    0.0000 C.3     1  UNL1       -0.0405
      5 C           2.5878    0.6891    0.0000 C.3     1  UNL1       -0.0466
      6 C           3.5388    1.3800    0.0000 C.3     1  UNL1       -0.0408
      7 C           2.0000   -0.1200    0.0000 C.3     1  UNL1       -0.0497
      8 C           2.2788   -1.8800    0.0000 C.3     1  UNL1       -0.0621
      9 C           4.4049    1.8800    0.0000 C.3     1  UNL1       -0.0622
     10 C           2.6728    1.8800    0.0000 C.3     1  UNL1       -0.0622
     11 H           3.7910   -1.1864    0.0000 H       1  UNL1        0.0309
     12 H           4.8039   -0.5949    0.0000 H       1  UNL1        0.0274
     13 H           4.8039    0.3550    0.0000 H       1  UNL1        0.0274
     14 H           1.9754   -1.0260    0.0000 H       1  UNL1        0.0301
     15 H           2.8400    1.2554    0.0000 H       1  UNL1        0.0271
     16 H           2.0508    0.9991    0.0000 H       1  UNL1        0.0271
     17 H           3.5388    2.0000    0.0000 H       1  UNL1        0.0301
     18 H           1.5392    0.2949    0.0000 H       1  UNL1        0.0268
     19 H           1.5392   -0.5348    0.0000 H       1  UNL1        0.0268
     20 H           1.6891   -1.6884    0.0000 H       1  UNL1        0.0233
     21 H           2.0872   -2.4697    0.0000 H       1  UNL1        0.0233
     22 H           2.8684   -2.0716    0.0000 H       1  UNL1        0.0233
     23 H           4.7149    1.3431    0.0000 H       1  UNL1        0.0233
     24 H           4.9418    2.1900    0.0000 H       1  UNL1        0.0233
     25 H           4.0949    2.4170    0.0000 H       1  UNL1        0.0233
     26 H           2.9828    2.4170    0.0000 H       1  UNL1        0.0233
     27 H           2.1359    2.1900    0.0000 H       1  UNL1        0.0233
     28 H           2.3628    1.3431    0.0000 H       1  UNL1        0.0233
@<TRIPOS>BOND
     1     1     2    1
     2     1     3    1
     3     1     5    1
     4     1     6    1
     5     2     3    1
     6     2     4    1
     7     2    11    1
     8     3    12    1
     9     3    13    1
    10     4     7    1
    11     4     8    1
    12     4    14    1
    13     5     7    1
    14     5    15    1
    15     5    16    1
    16     6     9    1
    17     6    10    1
    18     6    17    1
    19     7    18    1
    20     7    19    1
    21     8    20    1
    22     8    21    1
    23     8    22    1
    24     9    23    1
    25     9    24    1
    26     9    25    1
    27    10    26    1
    28    10    27    1
    29    10    28    1
