@<TRIPOS>MOLECULE
IMPHY002398
 19 22 0 0 0
SMALL
GASTEIGER

@<TRIPOS>ATOM
      1 C        2410.8700 2560.7400    0.0000 C.3     1  UNL1        0.0322
      2 C        2430.9200 2526.0000    0.0000 C.3     1  UNL1        0.1195
      3 C        2465.4600 2505.8600    0.0000 C.3     1  UNL1        0.1575
      4 O        2465.4600 2546.2500    0.0000 O.3     1  UNL1       -0.3546
      5 C        2500.0000 2526.0000    0.0000 C.3     1  UNL1        0.1963
      6 C        2534.5400 2505.8600    0.0000 C.3     1  UNL1        0.0532
      7 C        2534.5400 2465.5600    0.0000 C.3     1  UNL1        0.0047
      8 C        2500.0000 2445.4100    0.0000 C.3     1  UNL1        0.0095
      9 C        2465.4600 2465.5600    0.0000 C.3     1  UNL1        0.0798
     10 C        2465.4600 2425.5600    0.0000 C.3     1  UNL1        0.0099
     11 C        2430.9200 2445.4100    0.0000 C.2     1  UNL1        0.1523
     12 C        2396.2800 2465.5600    0.0000 C.3     1  UNL1        0.0671
     13 C        2396.2800 2505.8600    0.0000 C.3     1  UNL1        0.0374
     14 O        2430.9200 2405.4100    0.0000 O.2     1  UNL1       -0.2960
     15 C        2569.0800 2526.0000    0.0000 C.3     1  UNL1        0.1026
     16 C        2569.0800 2566.4000    0.0000 C.2     1  UNL1        0.3165
     17 O        2500.0000 2566.4000    0.0000 O.3     1  UNL1       -0.4497
     18 O        2597.3700 2594.5900    0.0000 O.2     1  UNL1       -0.2501
     19 C        2603.7200 2506.0500    0.0000 C.3     1  UNL1        0.0118
@<TRIPOS>BOND
     1     2     1    1
     2     2     3    1
     3     2     4    1
     4     2    13    1
     5     3     4    1
     6     3     5    1
     7     3     9    1
     8     5     6    1
     9     5    17    1
    10     6     7    1
    11     6    15    1
    12     8     7    1
    13     9     8    1
    14     9    10    1
    15     9    11    1
    16    11    14    2
    17    12    11    1
    18    13    12    1
    19    15    16    1
    20    15    19    1
    21    16    18    2
    22    17    16    1
