@<TRIPOS>MOLECULE
IMPHY012597
 27 26 0 0 0
SMALL
GASTEIGER

@<TRIPOS>ATOM
      1 O           4.5981    0.2500    0.0000 O.3     1  UNL1       -0.4643
      2 O           8.0622    0.2500    0.0000 O.3     1  UNL1       -0.3915
      3 O           5.4641   -1.2500    0.0000 O.2     1  UNL1       -0.2508
      4 C           2.8660    0.2500    0.0000 C.3     1  UNL1       -0.0123
      5 C           3.7320   -0.2500    0.0000 C.3     1  UNL1        0.0948
      6 C           6.3301    0.2500    0.0000 C.3     1  UNL1        0.0706
      7 C           7.1962   -0.2500    0.0000 C.3     1  UNL1        0.0625
      8 C           2.0000   -0.2500    0.0000 C.3     1  UNL1       -0.0596
      9 C           2.8660    1.2500    0.0000 C.3     1  UNL1       -0.0596
     10 C           5.4641   -0.2500    0.0000 C.2     1  UNL1        0.3096
     11 C           7.1962   -1.2500    0.0000 C.3     1  UNL1       -0.0384
     12 H           2.8660   -0.3700    0.0000 H       1  UNL1        0.0328
     13 H           3.3335   -0.7249    0.0000 H       1  UNL1        0.0700
     14 H           4.1306   -0.7249    0.0000 H       1  UNL1        0.0700
     15 H           6.7287    0.7249    0.0000 H       1  UNL1        0.0403
     16 H           5.9316    0.7249    0.0000 H       1  UNL1        0.0403
     17 H           7.7331   -0.5600    0.0000 H       1  UNL1        0.0596
     18 H           1.6900    0.2869    0.0000 H       1  UNL1        0.0233
     19 H           1.4631   -0.5600    0.0000 H       1  UNL1        0.0233
     20 H           2.3100   -0.7869    0.0000 H       1  UNL1        0.0233
     21 H           3.4860    1.2500    0.0000 H       1  UNL1        0.0233
     22 H           2.8660    1.8700    0.0000 H       1  UNL1        0.0233
     23 H           2.2460    1.2500    0.0000 H       1  UNL1        0.0233
     24 H           6.5762   -1.2500    0.0000 H       1  UNL1        0.0255
     25 H           7.1962   -1.8700    0.0000 H       1  UNL1        0.0255
     26 H           7.8162   -1.2500    0.0000 H       1  UNL1        0.0255
     27 H           8.5991   -0.0600    0.0000 H       1  UNL1        0.2098
@<TRIPOS>BOND
     1     1     5    1
     2     1    10    1
     3     2     7    1
     4     2    27    1
     5     3    10    2
     6     4     5    1
     7     4     8    1
     8     4     9    1
     9     4    12    1
    10     5    13    1
    11     5    14    1
    12     6     7    1
    13     6    10    1
    14     6    15    1
    15     6    16    1
    16     7    11    1
    17     7    17    1
    18     8    18    1
    19     8    19    1
    20     8    20    1
    21     9    21    1
    22     9    22    1
    23     9    23    1
    24    11    24    1
    25    11    25    1
    26    11    26    1
