@<TRIPOS>MOLECULE
IMPHY009601
 34 35 0 0 0
SMALL
GASTEIGER

@<TRIPOS>ATOM
      1 O           5.1350   -1.2500    0.0000 O.3     1  UNL1       -0.3368
      2 O           2.5369    0.2500    0.0000 O.3     1  UNL1       -0.3864
      3 O           6.0010    0.2500    0.0000 O.3     1  UNL1       -0.4288
      4 O           4.2690    1.2500    0.0000 O.3     1  UNL1       -0.3829
      5 O           2.5369   -1.7500    0.0000 O.3     1  UNL1       -0.3869
      6 O           6.8671   -1.2500    0.0000 O.2     1  UNL1       -0.2449
      7 O          10.3312   -0.2500    0.0000 O.3     1  UNL1       -0.5033
      8 O          10.3312    1.7500    0.0000 O.3     1  UNL1       -0.5033
      9 C           3.4030   -0.2500    0.0000 C.3     1  UNL1        0.1148
     10 C           4.2690    0.2500    0.0000 C.3     1  UNL1        0.1455
     11 C           3.4030   -1.2500    0.0000 C.3     1  UNL1        0.1070
     12 C           5.1350   -0.2500    0.0000 C.3     1  UNL1        0.2338
     13 C           4.2690   -1.7500    0.0000 C.3     1  UNL1        0.0802
     14 C           6.8671   -0.2500    0.0000 C.2     1  UNL1        0.3416
     15 C           7.7331    0.2500    0.0000 C.ar    1  UNL1        0.0627
     16 C           8.5991   -0.2500    0.0000 C.ar    1  UNL1       -0.0026
     17 C           7.7331    1.2500    0.0000 C.ar    1  UNL1       -0.0441
     18 C           9.4651    0.2500    0.0000 C.ar    1  UNL1        0.1590
     19 C           8.5991    1.7500    0.0000 C.ar    1  UNL1       -0.0158
     20 C           9.4651    1.2500    0.0000 C.ar    1  UNL1        0.1583
     21 H           3.4030    0.3700    0.0000 H       1  UNL1        0.0648
     22 H           4.8059    0.5600    0.0000 H       1  UNL1        0.0683
     23 H           3.4030   -1.8700    0.0000 H       1  UNL1        0.0643
     24 H           5.6720   -0.5600    0.0000 H       1  UNL1        0.1085
     25 H           3.8705   -2.2250    0.0000 H       1  UNL1        0.0588
     26 H           4.6675   -2.2250    0.0000 H       1  UNL1        0.0588
     27 H           2.0000   -0.0600    0.0000 H       1  UNL1        0.2100
     28 H           3.7320    1.5600    0.0000 H       1  UNL1        0.2102
     29 H           2.5369   -2.3700    0.0000 H       1  UNL1        0.2100
     30 H           8.5991   -0.8700    0.0000 H       1  UNL1        0.0663
     31 H           7.1962    1.5600    0.0000 H       1  UNL1        0.0627
     32 H           8.5991    2.3700    0.0000 H       1  UNL1        0.0655
     33 H          10.3312   -0.8700    0.0000 H       1  UNL1        0.2923
     34 H          10.3312    2.3700    0.0000 H       1  UNL1        0.2923
@<TRIPOS>BOND
     1     1    12    1
     2     1    13    1
     3     9     2    1
     4     2    27    1
     5    12     3    1
     6     3    14    1
     7    10     4    1
     8     4    28    1
     9    11     5    1
    10     5    29    1
    11     6    14    2
    12     7    18    1
    13     7    33    1
    14     8    20    1
    15     8    34    1
    16     9    10    1
    17     9    11    1
    18     9    21    1
    19    10    12    1
    20    10    22    1
    21    11    13    1
    22    11    23    1
    23    12    24    1
    24    13    25    1
    25    13    26    1
    26    14    15    1
    27    15    16   ar
    28    15    17   ar
    29    16    18   ar
    30    16    30    1
    31    17    19   ar
    32    17    31    1
    33    18    20   ar
    34    19    20   ar
    35    19    32    1
