@<TRIPOS>MOLECULE
IMPHY017100
 25 24 0 0 0
SMALL
GASTEIGER

@<TRIPOS>ATOM
      1 C           2.8660   -0.2500    0.0000 C.3     1  UNL1       -0.0459
      2 C           3.7320    0.2500    0.0000 C.3     1  UNL1       -0.0398
      3 C           4.5981   -0.2500    0.0000 C.3     1  UNL1        0.0094
      4 C           2.0000    0.2500    0.0000 C.3     1  UNL1       -0.0626
      5 C           2.8660   -1.2500    0.0000 C.3     1  UNL1       -0.0626
      6 C           5.4641    0.2500    0.0000 C.1     1  UNL1       -0.1022
      7 C           7.1962    1.2500    0.0000 C.3     1  UNL1        0.0063
      8 C           6.3301    0.7500    0.0000 C.1     1  UNL1       -0.1025
      9 C           8.0622    0.7500    0.0000 C.3     1  UNL1       -0.0543
     10 H           2.8660    0.3700    0.0000 H       1  UNL1        0.0296
     11 H           4.1306    0.7249    0.0000 H       1  UNL1        0.0277
     12 H           3.3335    0.7249    0.0000 H       1  UNL1        0.0277
     13 H           4.1996   -0.7249    0.0000 H       1  UNL1        0.0397
     14 H           4.9966   -0.7249    0.0000 H       1  UNL1        0.0397
     15 H           2.3100    0.7869    0.0000 H       1  UNL1        0.0232
     16 H           1.4631    0.5600    0.0000 H       1  UNL1        0.0232
     17 H           1.6900   -0.2869    0.0000 H       1  UNL1        0.0232
     18 H           2.2460   -1.2500    0.0000 H       1  UNL1        0.0232
     19 H           2.8660   -1.8700    0.0000 H       1  UNL1        0.0232
     20 H           3.4860   -1.2500    0.0000 H       1  UNL1        0.0232
     21 H           7.5947    1.7250    0.0000 H       1  UNL1        0.0395
     22 H           6.7976    1.7250    0.0000 H       1  UNL1        0.0395
     23 H           7.7522    0.2131    0.0000 H       1  UNL1        0.0239
     24 H           8.5991    0.4400    0.0000 H       1  UNL1        0.0239
     25 H           8.3722    1.2869    0.0000 H       1  UNL1        0.0239
@<TRIPOS>BOND
     1     1     2    1
     2     1     4    1
     3     1     5    1
     4     1    10    1
     5     2     3    1
     6     2    11    1
     7     2    12    1
     8     3     6    1
     9     3    13    1
    10     3    14    1
    11     4    15    1
    12     4    16    1
    13     4    17    1
    14     5    18    1
    15     5    19    1
    16     5    20    1
    17     6     8    3
    18     7     8    1
    19     7     9    1
    20     7    21    1
    21     7    22    1
    22     9    23    1
    23     9    24    1
    24     9    25    1
