@<TRIPOS>MOLECULE
IMPHY010273
 66 68 0 0 0
SMALL
GASTEIGER

@<TRIPOS>ATOM
      1 O          10.3312   -0.5000    0.0000 O.3     1  UNL1       -0.3401
      2 O           8.5991   -0.5000    0.0000 O.3     1  UNL1       -0.3405
      3 O          12.0632    0.5000    0.0000 O.3     1  UNL1       -0.3865
      4 O           8.5991    0.5000    0.0000 O.3     1  UNL1       -0.3865
      5 O           6.0010   -1.0000    0.0000 O.3     1  UNL1       -0.3460
      6 O          12.0632    2.5000    0.0000 O.3     1  UNL1       -0.3865
      7 O           8.5991    2.5000    0.0000 O.3     1  UNL1       -0.3865
      8 O          10.3312    3.5000    0.0000 O.3     1  UNL1       -0.3865
      9 O           4.2690   -1.0000    0.0000 O.3     1  UNL1       -0.3405
     10 O          10.3312   -2.5000    0.0000 O.3     1  UNL1       -0.3841
     11 O           8.5991   -3.5000    0.0000 O.3     1  UNL1       -0.3864
     12 O           6.8671   -2.5000    0.0000 O.3     1  UNL1       -0.3865
     13 O           6.0010    1.0000    0.0000 O.3     1  UNL1       -0.3841
     14 O           4.2690    2.0000    0.0000 O.3     1  UNL1       -0.3864
     15 O           2.5369    1.0000    0.0000 O.3     1  UNL1       -0.3865
     16 O           2.5369   -2.0000    0.0000 O.3     1  UNL1       -0.3924
     17 C          10.3312    0.5000    0.0000 C.3     1  UNL1        0.1183
     18 C          11.1972    1.0000    0.0000 C.3     1  UNL1        0.1122
     19 C           9.4651    1.0000    0.0000 C.3     1  UNL1        0.1122
     20 C          11.1972    2.0000    0.0000 C.3     1  UNL1        0.1118
     21 C           9.4651    2.0000    0.0000 C.3     1  UNL1        0.1118
     22 C          10.3312    2.5000    0.0000 C.3     1  UNL1        0.1118
     23 C           9.4651   -1.0000    0.0000 C.3     1  UNL1        0.1884
     24 C           9.4651   -2.0000    0.0000 C.3     1  UNL1        0.1341
     25 C           7.7331   -1.0000    0.0000 C.3     1  UNL1        0.1134
     26 C           8.5991   -2.5000    0.0000 C.3     1  UNL1        0.1141
     27 C           7.7331   -2.0000    0.0000 C.3     1  UNL1        0.1119
     28 C           6.8671   -0.5000    0.0000 C.3     1  UNL1        0.0796
     29 C           5.1350   -0.5000    0.0000 C.3     1  UNL1        0.1880
     30 C           5.1350    0.5000    0.0000 C.3     1  UNL1        0.1341
     31 C           4.2690    1.0000    0.0000 C.3     1  UNL1        0.1141
     32 C           3.4030    0.5000    0.0000 C.3     1  UNL1        0.1119
     33 C           3.4030   -0.5000    0.0000 C.3     1  UNL1        0.1130
     34 C           2.5369   -1.0000    0.0000 C.3     1  UNL1        0.0730
     35 H           9.7942    0.1900    0.0000 H       1  UNL1        0.0651
     36 H          11.7341    1.3100    0.0000 H       1  UNL1        0.0647
     37 H           8.9282    1.3100    0.0000 H       1  UNL1        0.0647
     38 H          11.1972    2.6200    0.0000 H       1  UNL1        0.0647
     39 H           9.4651    2.6200    0.0000 H       1  UNL1        0.0647
     40 H          10.8681    2.8100    0.0000 H       1  UNL1        0.0647
     41 H          10.0021   -1.3100    0.0000 H       1  UNL1        0.0938
     42 H           9.4651   -2.6200    0.0000 H       1  UNL1        0.0671
     43 H           7.7331   -0.3800    0.0000 H       1  UNL1        0.0647
     44 H           8.0622   -2.8100    0.0000 H       1  UNL1        0.0648
     45 H           7.1962   -1.6900    0.0000 H       1  UNL1        0.0647
     46 H           7.2656   -0.0251    0.0000 H       1  UNL1        0.0587
     47 H           6.4685   -0.0251    0.0000 H       1  UNL1        0.0587
     48 H           5.1350   -1.1200    0.0000 H       1  UNL1        0.0937
     49 H           5.1350    1.1200    0.0000 H       1  UNL1        0.0671
     50 H           3.7320    1.3100    0.0000 H       1  UNL1        0.0648
     51 H           2.8660    0.1900    0.0000 H       1  UNL1        0.0647
     52 H           3.4030   -1.1200    0.0000 H       1  UNL1        0.0647
     53 H          12.6002    0.8100    0.0000 H       1  UNL1        0.2100
     54 H           8.0622    0.8100    0.0000 H       1  UNL1        0.2100
     55 H          12.0632    3.1200    0.0000 H       1  UNL1        0.2100
     56 H           8.5991    3.1200    0.0000 H       1  UNL1        0.2100
     57 H          10.8681    3.8100    0.0000 H       1  UNL1        0.2100
     58 H          10.3312   -3.1200    0.0000 H       1  UNL1        0.2101
     59 H           8.0622   -3.8100    0.0000 H       1  UNL1        0.2100
     60 H           6.8671   -3.1200    0.0000 H       1  UNL1        0.2100
     61 H           2.3249   -0.4174    0.0000 H       1  UNL1        0.0584
     62 H           1.9264   -1.1077    0.0000 H       1  UNL1        0.0584
     63 H           6.0010    1.6200    0.0000 H       1  UNL1        0.2101
     64 H           3.7320    2.3100    0.0000 H       1  UNL1        0.2100
     65 H           2.0000    0.6900    0.0000 H       1  UNL1        0.2100
     66 H           2.0000   -2.3100    0.0000 H       1  UNL1        0.2095
@<TRIPOS>BOND
     1     1    17    1
     2    23     1    1
     3     2    23    1
     4     2    25    1
     5    18     3    1
     6     3    53    1
     7    19     4    1
     8     4    54    1
     9     5    28    1
    10    29     5    1
    11    20     6    1
    12     6    55    1
    13    21     7    1
    14     7    56    1
    15     8    22    1
    16     8    57    1
    17     9    29    1
    18     9    33    1
    19    24    10    1
    20    10    58    1
    21    26    11    1
    22    11    59    1
    23    27    12    1
    24    12    60    1
    25    30    13    1
    26    13    63    1
    27    31    14    1
    28    14    64    1
    29    32    15    1
    30    15    65    1
    31    16    34    1
    32    16    66    1
    33    17    18    1
    34    17    19    1
    35    17    35    1
    36    18    20    1
    37    18    36    1
    38    19    21    1
    39    19    37    1
    40    20    22    1
    41    20    38    1
    42    21    22    1
    43    21    39    1
    44    22    40    1
    45    23    24    1
    46    23    41    1
    47    24    26    1
    48    24    42    1
    49    25    27    1
    50    25    28    1
    51    25    43    1
    52    26    27    1
    53    26    44    1
    54    27    45    1
    55    28    46    1
    56    28    47    1
    57    29    30    1
    58    29    48    1
    59    30    31    1
    60    30    49    1
    61    31    32    1
    62    31    50    1
    63    32    33    1
    64    32    51    1
    65    33    34    1
    66    33    52    1
    67    34    61    1
    68    34    62    1
