@<TRIPOS>MOLECULE
IMPHY011115
 178 187 0 0 0
SMALL
GASTEIGER

@<TRIPOS>ATOM
      1 O           6.8671   -5.0194    0.0000 O.3     1  UNL1       -0.3449
      2 O           9.6611    2.0591    0.0000 O.3     1  UNL1       -0.3906
      3 O           8.6209    4.2600    0.0000 O.3     1  UNL1       -0.4306
      4 O           9.6152    3.4451    0.0000 O.2     1  UNL1       -0.2500
      5 O           5.1350   -5.0194    0.0000 O.3     1  UNL1       -0.3315
      6 O           6.8671   -7.0194    0.0000 O.3     1  UNL1       -0.3378
      7 O          10.3528    4.2800    0.0000 O.3     1  UNL1       -0.3360
      8 O           5.1350   -8.0194    0.0000 O.3     1  UNL1       -0.3864
      9 O           8.5977    6.2599    0.0000 O.3     1  UNL1       -0.4492
     10 O           3.4030   -7.0194    0.0000 O.3     1  UNL1       -0.3860
     11 O          10.3181    7.2798    0.0000 O.3     1  UNL1       -0.3389
     12 O           6.0010   -8.5194    0.0000 O.3     1  UNL1       -0.3405
     13 O          12.0616    6.2999    0.0000 O.3     1  UNL1       -0.3868
     14 O           2.5369   -5.5194    0.0000 O.3     1  UNL1       -0.4788
     15 O           3.4030   -4.0194    0.0000 O.2     1  UNL1       -0.2480
     16 O           8.5991   -8.0194    0.0000 O.3     1  UNL1       -0.3841
     17 O          12.0500    7.2998    0.0000 O.3     1  UNL1       -0.3405
     18 O           8.5991  -10.0194    0.0000 O.3     1  UNL1       -0.3864
     19 O           6.8671  -11.0194    0.0000 O.3     1  UNL1       -0.3865
     20 O           9.4464    7.7698    0.0000 O.2     1  UNL1       -0.2456
     21 O          10.2950    9.2797    0.0000 O.3     1  UNL1       -0.3841
     22 O           4.2690   -9.5194    0.0000 O.3     1  UNL1       -0.3924
     23 O          12.0154   10.2996    0.0000 O.3     1  UNL1       -0.3864
     24 O          13.7589    9.3197    0.0000 O.3     1  UNL1       -0.3865
     25 O          14.6422    7.8299    0.0000 O.3     1  UNL1       -0.3924
     26 O           4.2159   10.7095    0.0000 O.3     1  UNL1       -0.5068
     27 C           7.7681   -0.3192    0.0000 C.3     1  UNL1       -0.0193
     28 C           6.9040   -0.8226    0.0000 C.3     1  UNL1       -0.0257
     29 C           6.8920   -1.8641    0.0000 C.3     1  UNL1       -0.0250
     30 C           7.7643    0.6808    0.0000 C.3     1  UNL1       -0.0028
     31 C           7.7920   -2.3884    0.0000 C.3     1  UNL1       -0.0278
     32 C           8.6801   -0.8226    0.0000 C.3     1  UNL1       -0.0463
     33 C           8.6921   -1.8641    0.0000 C.3     1  UNL1       -0.0486
     34 C           7.8046   -3.4733    0.0000 C.3     1  UNL1       -0.0052
     35 C           6.8963    1.1774    0.0000 C.2     1  UNL1       -0.0627
     36 C           6.8762    2.2189    0.0000 C.3     1  UNL1       -0.0007
     37 C           6.0361   -0.3259    0.0000 C.3     1  UNL1       -0.0306
     38 C           5.9421   -2.3884    0.0000 C.3     1  UNL1       -0.0447
     39 C           8.6723    1.1911    0.0000 C.3     1  UNL1       -0.0162
     40 C           7.7722    2.7501    0.0000 C.3     1  UNL1        0.1000
     41 C           8.6763    2.2327    0.0000 C.3     1  UNL1        0.0723
     42 C           8.7522   -0.1418    0.0000 C.3     1  UNL1       -0.0585
     43 C           6.8671   -4.0194    0.0000 C.3     1  UNL1        0.0672
     44 C           6.0322    0.6741    0.0000 C.2     1  UNL1       -0.0836
     45 C           6.0279   -1.3608    0.0000 C.3     1  UNL1       -0.0590
     46 C           5.9295   -3.4733    0.0000 C.3     1  UNL1       -0.0255
     47 C           8.7497    0.5109    0.0000 C.3     1  UNL1       -0.0552
     48 C           5.9223    2.7358    0.0000 C.3     1  UNL1       -0.0402
     49 C           7.7764    3.8351    0.0000 C.3     1  UNL1       -0.0338
     50 C           5.9014    3.8206    0.0000 C.3     1  UNL1       -0.0343
     51 C           8.8046   -3.4656    0.0000 C.3     1  UNL1       -0.0572
     52 C           8.3113   -4.3355    0.0000 C.3     1  UNL1       -0.0572
     53 C           6.8347    4.3739    0.0000 C.3     1  UNL1       -0.0467
     54 C           8.6324    3.2601    0.0000 C.2     1  UNL1        0.3187
     55 C           5.3881    4.6788    0.0000 C.3     1  UNL1       -0.0598
     56 C           4.9015    3.8052    0.0000 C.3     1  UNL1       -0.0598
     57 C           6.0010   -5.5194    0.0000 C.3     1  UNL1        0.1892
     58 C           6.0010   -6.5194    0.0000 C.3     1  UNL1        0.1407
     59 C           9.4810    4.7700    0.0000 C.3     1  UNL1        0.2447
     60 C           5.1350   -7.0194    0.0000 C.3     1  UNL1        0.1149
     61 C           4.2690   -5.5194    0.0000 C.3     1  UNL1        0.1859
     62 C           4.2690   -6.5194    0.0000 C.3     1  UNL1        0.1202
     63 C           9.4695    5.7699    0.0000 C.3     1  UNL1        0.1936
     64 C          10.3297    6.2799    0.0000 C.3     1  UNL1        0.1324
     65 C          11.2130    4.7900    0.0000 C.3     1  UNL1        0.0803
     66 C          11.2014    5.7899    0.0000 C.3     1  UNL1        0.1084
     67 C           6.8671   -8.0194    0.0000 C.3     1  UNL1        0.1885
     68 C           3.4030   -5.0194    0.0000 C.2     1  UNL1        0.3367
     69 C           7.7331   -8.5194    0.0000 C.3     1  UNL1        0.1341
     70 C           7.7331   -9.5194    0.0000 C.3     1  UNL1        0.1141
     71 C           6.0010   -9.5194    0.0000 C.3     1  UNL1        0.1130
     72 C           8.5862    7.2598    0.0000 C.2     1  UNL1        0.3325
     73 C          11.1783    7.7898    0.0000 C.3     1  UNL1        0.1885
     74 C           6.8671  -10.0194    0.0000 C.3     1  UNL1        0.1119
     75 C          11.1667    8.7897    0.0000 C.3     1  UNL1        0.1341
     76 C           5.1350  -10.0194    0.0000 C.3     1  UNL1        0.0730
     77 C           7.7144    7.7497    0.0000 C.2     1  UNL1        0.0231
     78 C          12.0269    9.2997    0.0000 C.3     1  UNL1        0.1141
     79 C          12.9102    7.8098    0.0000 C.3     1  UNL1        0.1130
     80 C          12.8987    8.8098    0.0000 C.3     1  UNL1        0.1119
     81 C           7.7029    8.7497    0.0000 C.2     1  UNL1       -0.0478
     82 C          13.7820    7.3199    0.0000 C.3     1  UNL1        0.0730
     83 C           6.8311    9.2396    0.0000 C.ar    1  UNL1       -0.0246
     84 C           6.8196   10.2396    0.0000 C.ar    1  UNL1       -0.0511
     85 C           5.9709    8.7296    0.0000 C.ar    1  UNL1       -0.0511
     86 C           5.9478   10.7295    0.0000 C.ar    1  UNL1       -0.0196
     87 C           5.0992    9.2196    0.0000 C.ar    1  UNL1       -0.0196
     88 C           5.0876   10.2195    0.0000 C.ar    1  UNL1        0.1169
     89 H           7.6385   -1.2504    0.0000 H       1  UNL1        0.0315
     90 H           8.5314   -2.8077    0.0000 H       1  UNL1        0.0312
     91 H           9.2921   -0.9216    0.0000 H       1  UNL1        0.0271
     92 H           8.8824   -0.2365    0.0000 H       1  UNL1        0.0271
     93 H           8.9079   -2.4454    0.0000 H       1  UNL1        0.0268
     94 H           9.3017   -1.7510    0.0000 H       1  UNL1        0.0268
     95 H           6.1502    1.7770    0.0000 H       1  UNL1        0.0357
     96 H           5.4251   -0.2206    0.0000 H       1  UNL1        0.0310
     97 H           5.8263   -0.9093    0.0000 H       1  UNL1        0.0310
     98 H           5.7398   -1.8023    0.0000 H       1  UNL1        0.0271
     99 H           5.3300   -2.4874    0.0000 H       1  UNL1        0.0271
    100 H           8.8791    0.6066    0.0000 H       1  UNL1        0.0299
    101 H           9.2836    1.2949    0.0000 H       1  UNL1        0.0299
    102 H           8.8872    2.8158    0.0000 H       1  UNL1        0.0605
    103 H           8.8623   -0.7519    0.0000 H       1  UNL1        0.0235
    104 H           9.3624   -0.0318    0.0000 H       1  UNL1        0.0235
    105 H           8.6422    0.4684    0.0000 H       1  UNL1        0.0235
    106 H           7.4046   -4.3284    0.0000 H       1  UNL1        0.0602
    107 H           5.4941    0.9820    0.0000 H       1  UNL1        0.0572
    108 H           6.3400   -0.8250    0.0000 H       1  UNL1        0.0235
    109 H           5.4922   -1.0487    0.0000 H       1  UNL1        0.0235
    110 H           5.7158   -1.8965    0.0000 H       1  UNL1        0.0235
    111 H           5.3199   -3.3602    0.0000 H       1  UNL1        0.0290
    112 H           5.7137   -4.0546    0.0000 H       1  UNL1        0.0290
    113 H           8.6444   -0.1001    0.0000 H       1  UNL1        0.0238
    114 H           9.3607    0.4056    0.0000 H       1  UNL1        0.0238
    115 H           8.8550    1.1219    0.0000 H       1  UNL1        0.0238
    116 H           5.3095    2.8301    0.0000 H       1  UNL1        0.0276
    117 H           5.7246    2.1482    0.0000 H       1  UNL1        0.0276
    118 H           8.3869    3.7266    0.0000 H       1  UNL1        0.0277
    119 H           7.9877    4.4180    0.0000 H       1  UNL1        0.0277
    120 H           7.7767   -4.6496    0.0000 H       1  UNL1        0.0236
    121 H           8.8094   -4.0856    0.0000 H       1  UNL1        0.0236
    122 H           9.4246   -3.4608    0.0000 H       1  UNL1        0.0236
    123 H           8.7998   -2.8456    0.0000 H       1  UNL1        0.0236
    124 H           8.6254   -4.8700    0.0000 H       1  UNL1        0.0236
    125 H           8.8458   -4.0213    0.0000 H       1  UNL1        0.0236
    126 H           7.2302    4.8514    0.0000 H       1  UNL1        0.0271
    127 H           6.4319    4.8453    0.0000 H       1  UNL1        0.0271
    128 H           9.8732    1.4765    0.0000 H       1  UNL1        0.2098
    129 H           5.9202    4.9971    0.0000 H       1  UNL1        0.0235
    130 H           5.0699    5.2109    0.0000 H       1  UNL1        0.0235
    131 H           4.8560    4.3606    0.0000 H       1  UNL1        0.0235
    132 H           4.8920    4.4251    0.0000 H       1  UNL1        0.0235
    133 H           4.2816    3.7956    0.0000 H       1  UNL1        0.0235
    134 H           4.9111    3.1853    0.0000 H       1  UNL1        0.0235
    135 H           6.0010   -4.8994    0.0000 H       1  UNL1        0.0938
    136 H           6.0010   -7.1394    0.0000 H       1  UNL1        0.0675
    137 H           9.4882    4.1500    0.0000 H       1  UNL1        0.1097
    138 H           4.5981   -7.3294    0.0000 H       1  UNL1        0.0648
    139 H           4.2690   -4.8994    0.0000 H       1  UNL1        0.0741
    140 H           3.7320   -6.2094    0.0000 H       1  UNL1        0.0652
    141 H           8.9362    5.4537    0.0000 H       1  UNL1        0.0825
    142 H           9.7892    6.5837    0.0000 H       1  UNL1        0.0663
    143 H          11.4318    4.2099    0.0000 H       1  UNL1        0.0588
    144 H          11.8223    4.9047    0.0000 H       1  UNL1        0.0588
    145 H          11.1943    6.4099    0.0000 H       1  UNL1        0.0644
    146 H           7.4040   -7.7094    0.0000 H       1  UNL1        0.0938
    147 H           4.5981   -8.3294    0.0000 H       1  UNL1        0.2100
    148 H           3.4030   -7.6394    0.0000 H       1  UNL1        0.2100
    149 H           8.2700   -8.8294    0.0000 H       1  UNL1        0.0671
    150 H           7.7331  -10.1394    0.0000 H       1  UNL1        0.0648
    151 H          12.6021    5.9961    0.0000 H       1  UNL1        0.2100
    152 H           5.4641   -9.2094    0.0000 H       1  UNL1        0.0647
    153 H           2.0000   -5.2094    0.0000 H       1  UNL1        0.2951
    154 H          11.1855    7.1698    0.0000 H       1  UNL1        0.0938
    155 H           6.3301  -10.3294    0.0000 H       1  UNL1        0.0647
    156 H           8.5991   -7.3994    0.0000 H       1  UNL1        0.2101
    157 H          10.6334    8.4735    0.0000 H       1  UNL1        0.0671
    158 H           4.7365  -10.4944    0.0000 H       1  UNL1        0.0584
    159 H           5.5335  -10.4944    0.0000 H       1  UNL1        0.0584
    160 H           7.1811    7.4336    0.0000 H       1  UNL1        0.0689
    161 H           8.5991  -10.6394    0.0000 H       1  UNL1        0.2100
    162 H          11.4864    9.6035    0.0000 H       1  UNL1        0.0648
    163 H           6.3301  -11.3294    0.0000 H       1  UNL1        0.2100
    164 H          12.9174    7.1899    0.0000 H       1  UNL1        0.0647
    165 H          12.8915    9.4297    0.0000 H       1  UNL1        0.0647
    166 H          10.2878    9.8996    0.0000 H       1  UNL1        0.2101
    167 H           8.2362    9.0659    0.0000 H       1  UNL1        0.0626
    168 H           3.7320   -9.8294    0.0000 H       1  UNL1        0.2095
    169 H          13.3890    6.8404    0.0000 H       1  UNL1        0.0584
    170 H          14.1860    6.8496    0.0000 H       1  UNL1        0.0584
    171 H          12.5487   10.6158    0.0000 H       1  UNL1        0.2100
    172 H          13.7517    9.9397    0.0000 H       1  UNL1        0.2100
    173 H          15.1827    7.5261    0.0000 H       1  UNL1        0.2095
    174 H           7.3529   10.5557    0.0000 H       1  UNL1        0.0625
    175 H           5.9781    8.1097    0.0000 H       1  UNL1        0.0625
    176 H           5.9406   11.3495    0.0000 H       1  UNL1        0.0654
    177 H           4.5659    8.9034    0.0000 H       1  UNL1        0.0654
    178 H           4.2087   11.3294    0.0000 H       1  UNL1        0.2921
@<TRIPOS>BOND
     1    43     1    1
     2    57     1    1
     3    41     2    1
     4     2   128    1
     5     3    54    1
     6    59     3    1
     7     4    54    2
     8     5    57    1
     9     5    61    1
    10    58     6    1
    11    67     6    1
    12     7    59    1
    13     7    65    1
    14    60     8    1
    15     8   147    1
    16    63     9    1
    17     9    72    1
    18    62    10    1
    19    10   148    1
    20    64    11    1
    21    73    11    1
    22    12    67    1
    23    12    71    1
    24    66    13    1
    25    13   151    1
    26    14    68    1
    27    14   153    1
    28    15    68    2
    29    69    16    1
    30    16   156    1
    31    17    73    1
    32    17    79    1
    33    70    18    1
    34    18   161    1
    35    74    19    1
    36    19   163    1
    37    20    72    2
    38    75    21    1
    39    21   166    1
    40    22    76    1
    41    22   168    1
    42    78    23    1
    43    23   171    1
    44    80    24    1
    45    24   172    1
    46    25    82    1
    47    25   173    1
    48    26    88    1
    49    26   178    1
    50    27    28    1
    51    27    30    1
    52    27    32    1
    53    27    42    1
    54    28    29    1
    55    28    37    1
    56    28    89    1
    57    29    31    1
    58    29    38    1
    59    29    45    1
    60    30    35    1
    61    30    39    1
    62    30    47    1
    63    31    33    1
    64    31    34    1
    65    31    90    1
    66    32    33    1
    67    32    91    1
    68    32    92    1
    69    33    93    1
    70    33    94    1
    71    34    43    1
    72    34    51    1
    73    34    52    1
    74    35    36    1
    75    35    44    2
    76    36    40    1
    77    36    48    1
    78    36    95    1
    79    37    44    1
    80    37    96    1
    81    37    97    1
    82    38    46    1
    83    38    98    1
    84    38    99    1
    85    39    41    1
    86    39   100    1
    87    39   101    1
    88    40    41    1
    89    40    49    1
    90    40    54    1
    91    41   102    1
    92    42   103    1
    93    42   104    1
    94    42   105    1
    95    43    46    1
    96    43   106    1
    97    44   107    1
    98    45   108    1
    99    45   109    1
   100    45   110    1
   101    46   111    1
   102    46   112    1
   103    47   113    1
   104    47   114    1
   105    47   115    1
   106    48    50    1
   107    48   116    1
   108    48   117    1
   109    49    53    1
   110    49   118    1
   111    49   119    1
   112    50    53    1
   113    50    55    1
   114    50    56    1
   115    51   121    1
   116    51   122    1
   117    51   123    1
   118    52   120    1
   119    52   124    1
   120    52   125    1
   121    53   126    1
   122    53   127    1
   123    55   129    1
   124    55   130    1
   125    55   131    1
   126    56   132    1
   127    56   133    1
   128    56   134    1
   129    57    58    1
   130    57   135    1
   131    58    60    1
   132    58   136    1
   133    59    63    1
   134    59   137    1
   135    60    62    1
   136    60   138    1
   137    61    62    1
   138    61    68    1
   139    61   139    1
   140    62   140    1
   141    63    64    1
   142    63   141    1
   143    64    66    1
   144    64   142    1
   145    65    66    1
   146    65   143    1
   147    65   144    1
   148    66   145    1
   149    67    69    1
   150    67   146    1
   151    69    70    1
   152    69   149    1
   153    70    74    1
   154    70   150    1
   155    71    74    1
   156    71    76    1
   157    71   152    1
   158    72    77    1
   159    73    75    1
   160    73   154    1
   161    74   155    1
   162    75    78    1
   163    75   157    1
   164    76   158    1
   165    76   159    1
   166    77    81    2
   167    77   160    1
   168    78    80    1
   169    78   162    1
   170    79    80    1
   171    79    82    1
   172    79   164    1
   173    80   165    1
   174    81    83    1
   175    81   167    1
   176    82   169    1
   177    82   170    1
   178    83    84   ar
   179    83    85   ar
   180    84    86   ar
   181    84   174    1
   182    85    87   ar
   183    85   175    1
   184    86    88   ar
   185    86   176    1
   186    87    88   ar
   187    87   177    1
