@<TRIPOS>MOLECULE
IMPHY000464
 35 40 0 0 0
SMALL
GASTEIGER

@<TRIPOS>ATOM
      1 C           4.2643    2.4352    0.0000 C.3     1  UNL1        0.0450
      2 C           3.4140    2.9259    0.0000 C.3     1  UNL1        0.0208
      3 C           4.2643    1.4538    0.0000 C.3     1  UNL1        0.1458
      4 C           5.1985    2.7396    0.0000 C.2     1  UNL1       -0.0234
      5 C           4.2669    3.4534    0.0000 C.3     1  UNL1        0.0066
      6 C           2.5638    2.4326    0.0000 C.3     1  UNL1        0.0224
      7 C           3.4035    3.9284    0.0000 C.3     1  UNL1        0.1103
      8 C           3.4140    0.9631    0.0000 C.3     1  UNL1        0.1432
      9 O           5.1985    1.1494    0.0000 O.3     1  UNL1       -0.3519
     10 C           5.7758    1.9445    0.0000 C.3     1  UNL1        0.1336
     11 C           5.7758    3.5348    0.0000 C.2     1  UNL1       -0.0458
     12 C           2.5638    1.4512    0.0000 C.3     1  UNL1        0.0426
     13 C           1.7162    2.9259    0.0000 C.2     1  UNL1       -0.0237
     14 C           2.5638    3.4245    0.0000 C.3     1  UNL1        0.0045
     15 C           2.5559    4.4060    0.0000 C.2     1  UNL1        0.3171
     16 O           3.1254    0.0000    0.0000 O.3     1  UNL1       -0.3533
     17 C           6.7126    2.2515    0.0000 C.3     1  UNL1        0.0420
     18 C           6.7100    3.2330    0.0000 C.3     1  UNL1        0.0450
     19 C           5.5396    4.3797    0.0000 C.3     1  UNL1        0.0261
     20 C           1.7162    0.9631    0.0000 C.3     1  UNL1        0.0854
     21 C           0.8634    2.4352    0.0000 C.2     1  UNL1        0.0329
     22 O           1.7162    3.9048    0.0000 O.3     1  UNL1       -0.4444
     23 O           2.5428    5.3822    0.0000 O.2     1  UNL1       -0.2501
     24 C           2.0442    0.0000    0.0000 C.3     1  UNL1        0.1493
     25 C           7.5130    3.7657    0.0000 C.2     1  UNL1        0.0374
     26 C           0.8634    1.4512    0.0000 C.2     1  UNL1        0.1744
     27 C           0.9053    0.3989    0.0000 C.3     1  UNL1        0.0103
     28 C           0.8581    4.3824    0.0000 C.3     1  UNL1        0.2556
     29 C           8.5312    3.4114    0.0000 C.3     1  UNL1        0.3404
     30 C           7.5392    4.8390    0.0000 C.2     1  UNL1        0.0798
     31 O           0.0000    0.8948    0.0000 O.2     1  UNL1       -0.2913
     32 O           9.1846    4.2669    0.0000 O.3     1  UNL1       -0.4154
     33 O           8.8461    2.4483    0.0000 O.3     1  UNL1       -0.1696
     34 C           8.5653    5.1512    0.0000 C.2     1  UNL1        0.3430
     35 O           8.9064    6.0618    0.0000 O.2     1  UNL1       -0.2448
@<TRIPOS>BOND
     1     1     2    1
     2     1     3    1
     3     1     4    1
     4     1     5    1
     5     2     6    1
     6     2     7    1
     7     3     8    1
     8     3     9    1
     9     4    11    2
    10     6    13    1
    11     6    14    1
    12     7    15    1
    13     8    12    1
    14     8    16    1
    15     9    10    1
    16    10     4    1
    17    10    17    1
    18    11    18    1
    19    11    19    1
    20    12     6    1
    21    12    20    1
    22    13    21    2
    23    15    22    1
    24    15    23    2
    25    16    24    1
    26    17    18    1
    27    18    25    1
    28    20    24    1
    29    20    26    1
    30    20    27    1
    31    21    26    1
    32    22    28    1
    33    25    29    1
    34    25    30    2
    35    26    31    2
    36    29    32    1
    37    29    33    1
    38    30    34    1
    39    32    34    1
    40    34    35    2
