@<TRIPOS>MOLECULE
IMPHY003143
 70 75 0 0 0
SMALL
GASTEIGER

@<TRIPOS>ATOM
      1 O           4.8723   -0.8146    0.0000 O.3     1  UNL1       -0.3637
      2 O           7.8833    0.4275    0.0000 O.3     1  UNL1       -0.3849
      3 O           7.7174   -1.6357    0.0000 O.3     1  UNL1       -0.3823
      4 O           9.8486   -0.5448    0.0000 O.3     1  UNL1       -0.4548
      5 O           4.7504    3.4552    0.0000 O.2     1  UNL1       -0.2918
      6 O          11.5714   -0.3667    0.0000 O.2     1  UNL1       -0.2453
      7 C           5.6098   -0.1474    0.0000 C.3     1  UNL1        0.1074
      8 C           6.4758    0.3526    0.0000 C.3     1  UNL1        0.0313
      9 C           5.8190   -1.1192    0.0000 C.3     1  UNL1        0.0920
     10 C           7.2129   -0.3145    0.0000 C.3     1  UNL1        0.1083
     11 C           4.7438    0.3526    0.0000 C.3     1  UNL1       -0.0014
     12 C           6.8078   -1.2223    0.0000 C.3     1  UNL1        0.0086
     13 C           4.7438    1.3526    0.0000 C.3     1  UNL1       -0.0190
     14 C           6.4758    1.3526    0.0000 C.3     1  UNL1       -0.0419
     15 C           5.6098    1.8526    0.0000 C.3     1  UNL1       -0.0480
     16 C           8.1257   -0.7228    0.0000 C.3     1  UNL1        0.1293
     17 C           7.1186    1.1186    0.0000 C.3     1  UNL1       -0.0541
     18 C           3.8498   -0.1821    0.0000 C.3     1  UNL1       -0.0286
     19 C           3.8498    1.8872    0.0000 C.3     1  UNL1        0.0545
     20 C           2.9438    1.3734    0.0000 C.2     1  UNL1       -0.0561
     21 C           9.0385   -1.1311    0.0000 C.3     1  UNL1        0.1380
     22 C           2.9438    0.3318    0.0000 C.2     1  UNL1       -0.0832
     23 C           8.5340    0.1900    0.0000 C.3     1  UNL1       -0.0298
     24 C           4.7197    2.3806    0.0000 C.3     1  UNL1       -0.0485
     25 C           3.8749    2.9719    0.0000 C.2     1  UNL1        0.1659
     26 C           2.0000    1.9086    0.0000 C.3     1  UNL1       -0.0122
     27 C           9.1413   -2.1258    0.0000 C.3     1  UNL1        0.0089
     28 C           2.9438    3.5289    0.0000 C.2     1  UNL1       -0.0220
     29 C           2.0000    2.9936    0.0000 C.2     1  UNL1       -0.0767
     30 C          10.0542   -2.5342    0.0000 C.2     1  UNL1       -0.0594
     31 C          10.7614   -0.9531    0.0000 C.2     1  UNL1        0.3352
     32 C          10.8642   -1.9478    0.0000 C.2     1  UNL1        0.0326
     33 C          10.1570   -3.5289    0.0000 C.3     1  UNL1       -0.0429
     34 C          11.7771   -2.3561    0.0000 C.3     1  UNL1       -0.0330
     35 H           5.6438   -1.9510    0.0000 H       1  UNL1        0.0626
     36 H           4.7504   -0.4974    0.0000 H       1  UNL1        0.0336
     37 H           6.6790   -1.8288    0.0000 H       1  UNL1        0.0320
     38 H           7.3974   -1.4141    0.0000 H       1  UNL1        0.0320
     39 H           5.4799    0.9276    0.0000 H       1  UNL1        0.0317
     40 H           7.0864    1.2449    0.0000 H       1  UNL1        0.0272
     41 H           6.6879    1.9352    0.0000 H       1  UNL1        0.0272
     42 H           6.0084    2.3275    0.0000 H       1  UNL1        0.0269
     43 H           5.2113    2.3275    0.0000 H       1  UNL1        0.0269
     44 H           7.5936    0.7201    0.0000 H       1  UNL1        0.0237
     45 H           7.5172    1.5936    0.0000 H       1  UNL1        0.0237
     46 H           6.6437    1.5172    0.0000 H       1  UNL1        0.0237
     47 H           3.4562   -0.6611    0.0000 H       1  UNL1        0.0311
     48 H           4.2544   -0.6519    0.0000 H       1  UNL1        0.0311
     49 H           7.9060    1.0471    0.0000 H       1  UNL1        0.2103
     50 H           8.9512   -0.2856    0.0000 H       1  UNL1        0.0767
     51 H           2.4080    0.0197    0.0000 H       1  UNL1        0.0572
     52 H           9.1000   -0.0631    0.0000 H       1  UNL1        0.0259
     53 H           8.7872    0.7560    0.0000 H       1  UNL1        0.0259
     54 H           7.9681    0.4432    0.0000 H       1  UNL1        0.0259
     55 H           5.0256    1.8412    0.0000 H       1  UNL1        0.0242
     56 H           5.2590    2.6864    0.0000 H       1  UNL1        0.0242
     57 H           4.4139    2.9199    0.0000 H       1  UNL1        0.0242
     58 H           8.0809   -2.1379    0.0000 H       1  UNL1        0.2104
     59 H           1.3891    2.0147    0.0000 H       1  UNL1        0.0353
     60 H           1.7909    1.3249    0.0000 H       1  UNL1        0.0353
     61 H           8.5229   -2.0815    0.0000 H       1  UNL1        0.0347
     62 H           8.9903   -2.7272    0.0000 H       1  UNL1        0.0347
     63 H           2.9510    4.1488    0.0000 H       1  UNL1        0.0649
     64 H           1.4643    3.3057    0.0000 H       1  UNL1        0.0576
     65 H           9.5403   -3.5926    0.0000 H       1  UNL1        0.0275
     66 H          10.2207   -4.1456    0.0000 H       1  UNL1        0.0275
     67 H          10.7737   -3.4651    0.0000 H       1  UNL1        0.0275
     68 H          11.5239   -2.9220    0.0000 H       1  UNL1        0.0280
     69 H          12.3430   -2.6092    0.0000 H       1  UNL1        0.0280
     70 H          12.0302   -1.7901    0.0000 H       1  UNL1        0.0280
@<TRIPOS>BOND
     1     7     1    1
     2     1     9    1
     3    10     2    1
     4     2    49    1
     5    16     3    1
     6     3    58    1
     7     4    21    1
     8     4    31    1
     9     5    25    2
    10     6    31    2
    11     7     8    1
    12     7     9    1
    13     7    11    1
    14     8    10    1
    15     8    14    1
    16     8    17    1
    17     9    12    1
    18     9    35    1
    19    10    12    1
    20    10    16    1
    21    11    13    1
    22    11    18    1
    23    11    36    1
    24    12    37    1
    25    12    38    1
    26    13    15    1
    27    13    19    1
    28    13    39    1
    29    14    15    1
    30    14    40    1
    31    14    41    1
    32    15    42    1
    33    15    43    1
    34    16    21    1
    35    16    23    1
    36    17    44    1
    37    17    45    1
    38    17    46    1
    39    18    22    1
    40    18    47    1
    41    18    48    1
    42    19    20    1
    43    19    24    1
    44    19    25    1
    45    20    22    2
    46    20    26    1
    47    21    27    1
    48    21    50    1
    49    22    51    1
    50    23    52    1
    51    23    53    1
    52    23    54    1
    53    24    55    1
    54    24    56    1
    55    24    57    1
    56    25    28    1
    57    26    29    1
    58    26    59    1
    59    26    60    1
    60    27    30    1
    61    27    61    1
    62    27    62    1
    63    28    29    2
    64    28    63    1
    65    29    64    1
    66    30    32    2
    67    30    33    1
    68    31    32    1
    69    32    34    1
    70    33    65    1
    71    33    66    1
    72    33    67    1
    73    34    68    1
    74    34    69    1
    75    34    70    1
