@<TRIPOS>MOLECULE
IMPHY008623
 33 35 0 0 0
SMALL
GASTEIGER

@<TRIPOS>ATOM
      1 O           6.3617   -0.0541    0.0000 O.2     1  UNL1       -0.4904
      2 O           3.7581   -2.6286    0.0000 O.3     1  UNL1       -0.5065
      3 O           2.9042    1.9407    0.0000 O.2     1  UNL1       -0.2832
      4 O           4.6362    2.9407    0.0000 O.2     1  UNL1       -0.2834
      5 C           5.5294   -1.5636    0.0000 C.3     1  UNL1        0.0196
      6 C           4.6523   -1.1009    0.0000 C.ar    1  UNL1        0.0114
      7 C           4.6362   -0.0593    0.0000 C.ar    1  UNL1        0.0352
      8 C           6.3751   -1.0457    0.0000 C.3     1  UNL1        0.0963
      9 C           5.5022    0.4407    0.0000 C.2     1  UNL1        0.1354
     10 C           3.7702    0.4407    0.0000 C.ar    1  UNL1        0.0396
     11 C           3.7542   -1.6286    0.0000 C.ar    1  UNL1        0.1213
     12 C           5.5614   -2.5631    0.0000 C.3     1  UNL1       -0.0551
     13 C           2.8602   -0.0662    0.0000 C.ar    1  UNL1       -0.0354
     14 C           5.5022    1.4407    0.0000 C.2     1  UNL1        0.0423
     15 C           2.8522   -1.1078    0.0000 C.ar    1  UNL1       -0.0163
     16 C           3.7702    1.4407    0.0000 C.2     1  UNL1        0.2336
     17 C           4.6362    1.9407    0.0000 C.2     1  UNL1        0.2322
     18 C           2.0000    0.4438    0.0000 C.3     1  UNL1       -0.0389
     19 C           6.3683    1.9407    0.0000 C.3     1  UNL1       -0.0324
     20 H           6.0751   -1.8580    0.0000 H       1  UNL1        0.0380
     21 H           6.5998   -1.6236    0.0000 H       1  UNL1        0.0702
     22 H           6.9837   -0.9273    0.0000 H       1  UNL1        0.0702
     23 H           4.9417   -2.5829    0.0000 H       1  UNL1        0.0237
     24 H           5.5812   -3.1828    0.0000 H       1  UNL1        0.0237
     25 H           6.1810   -2.5433    0.0000 H       1  UNL1        0.0237
     26 H           2.3140   -1.4157    0.0000 H       1  UNL1        0.0657
     27 H           2.3162    0.9771    0.0000 H       1  UNL1        0.0278
     28 H           1.4667    0.7600    0.0000 H       1  UNL1        0.0278
     29 H           1.6838   -0.0895    0.0000 H       1  UNL1        0.0278
     30 H           6.6783    1.4037    0.0000 H       1  UNL1        0.0280
     31 H           6.9052    2.2507    0.0000 H       1  UNL1        0.0280
     32 H           6.0583    2.4776    0.0000 H       1  UNL1        0.0280
     33 H           3.2224   -2.9407    0.0000 H       1  UNL1        0.2921
@<TRIPOS>BOND
     1     1     8    1
     2     1     9    1
     3     2    11    1
     4     2    33    1
     5     3    16    2
     6     4    17    2
     7     5     6    1
     8     5     8    1
     9     5    12    1
    10     5    20    1
    11     6     7   ar
    12     6    11   ar
    13     7     9    1
    14     7    10   ar
    15     8    21    1
    16     8    22    1
    17     9    14    2
    18    10    13   ar
    19    10    16    1
    20    11    15   ar
    21    12    23    1
    22    12    24    1
    23    12    25    1
    24    13    15   ar
    25    13    18    1
    26    14    17    1
    27    14    19    1
    28    15    26    1
    29    16    17    1
    30    18    27    1
    31    18    28    1
    32    18    29    1
    33    19    30    1
    34    19    31    1
    35    19    32    1
