@<TRIPOS>MOLECULE
IMPHY016589
 27 27 0 0 0
SMALL
GASTEIGER

@<TRIPOS>ATOM
      1 C           3.7320    0.2500    0.0000 C.3     1  UNL1       -0.0387
      2 C           2.8660   -0.2500    0.0000 C.3     1  UNL1       -0.0411
      3 C           4.5981   -0.2500    0.0000 C.3     1  UNL1       -0.0500
      4 C           2.8660   -1.2500    0.0000 C.3     1  UNL1       -0.0502
      5 C           4.5981   -1.2500    0.0000 C.3     1  UNL1       -0.0528
      6 C           3.7320   -1.7500    0.0000 C.3     1  UNL1       -0.0528
      7 C           3.7320    1.2500    0.0000 C.3     1  UNL1       -0.0528
      8 C           2.0000    0.2500    0.0000 C.3     1  UNL1       -0.0622
      9 C           4.5981    1.7500    0.0000 C.3     1  UNL1       -0.0650
     10 H           4.2690    0.5600    0.0000 H       1  UNL1        0.0303
     11 H           2.8660    0.3700    0.0000 H       1  UNL1        0.0301
     12 H           5.2087   -0.3577    0.0000 H       1  UNL1        0.0268
     13 H           4.8101    0.3326    0.0000 H       1  UNL1        0.0268
     14 H           2.2554   -1.1423    0.0000 H       1  UNL1        0.0268
     15 H           2.6540   -1.8326    0.0000 H       1  UNL1        0.0268
     16 H           4.8101   -1.8326    0.0000 H       1  UNL1        0.0265
     17 H           5.2087   -1.1423    0.0000 H       1  UNL1        0.0265
     18 H           3.3335   -2.2250    0.0000 H       1  UNL1        0.0265
     19 H           4.1306   -2.2250    0.0000 H       1  UNL1        0.0265
     20 H           3.5200    1.8326    0.0000 H       1  UNL1        0.0265
     21 H           3.1215    1.1423    0.0000 H       1  UNL1        0.0265
     22 H           2.3100    0.7869    0.0000 H       1  UNL1        0.0233
     23 H           1.4631    0.5600    0.0000 H       1  UNL1        0.0233
     24 H           1.6900   -0.2869    0.0000 H       1  UNL1        0.0233
     25 H           4.9081    1.2131    0.0000 H       1  UNL1        0.0230
     26 H           5.1350    2.0600    0.0000 H       1  UNL1        0.0230
     27 H           4.2881    2.2869    0.0000 H       1  UNL1        0.0230
@<TRIPOS>BOND
     1     1     2    1
     2     1     3    1
     3     1     7    1
     4     1    10    1
     5     2     4    1
     6     2     8    1
     7     2    11    1
     8     3     5    1
     9     3    12    1
    10     3    13    1
    11     4     6    1
    12     4    14    1
    13     4    15    1
    14     5     6    1
    15     5    16    1
    16     5    17    1
    17     6    18    1
    18     6    19    1
    19     7     9    1
    20     7    20    1
    21     7    21    1
    22     8    22    1
    23     8    23    1
    24     8    24    1
    25     9    25    1
    26     9    26    1
    27     9    27    1
