@<TRIPOS>MOLECULE
IMPHY008668
 50 54 0 0 0
SMALL
GASTEIGER

@<TRIPOS>ATOM
      1 O           5.5083    0.8543    0.0000 O.3     1  UNL1       -0.4569
      2 O           9.2696   -1.4578    0.0000 O.3     1  UNL1       -0.3843
      3 O           2.5636   -0.2463    0.0000 O.3     1  UNL1       -0.3881
      4 O           3.1232   -2.1068    0.0000 O.3     1  UNL1       -0.3891
      5 O           3.0864    1.4108    0.0000 O.2     1  UNL1       -0.2501
      6 O           6.5851    2.0827    0.0000 O.3     1  UNL1       -0.4804
      7 O           4.8592    1.9372    0.0000 O.2     1  UNL1       -0.2507
      8 C           6.5764   -0.0340    0.0000 C.3     1  UNL1       -0.0028
      9 C           5.3624   -0.8796    0.0000 C.3     1  UNL1        0.1239
     10 C           6.2744   -0.9012    0.0000 C.3     1  UNL1        0.0063
     11 C           5.0993   -0.0056    0.0000 C.3     1  UNL1        0.0307
     12 C           5.8481    0.5152    0.0000 C.3     1  UNL1        0.0702
     13 C           4.1821    0.2104    0.0000 C.3     1  UNL1        0.1003
     14 C           7.2724   -0.8664    0.0000 C.3     1  UNL1       -0.0130
     15 C           8.3252   -1.1290    0.0000 C.3     1  UNL1        0.0874
     16 C           7.4432    0.2707    0.0000 C.3     1  UNL1       -0.0224
     17 C           6.7647   -1.6777    0.0000 C.3     1  UNL1       -0.0431
     18 C           4.7246   -1.5942    0.0000 C.3     1  UNL1        0.0163
     19 C           7.6770   -1.7790    0.0000 C.3     1  UNL1       -0.0197
     20 C           3.5369   -0.4758    0.0000 C.3     1  UNL1        0.0970
     21 C           3.8084   -1.3784    0.0000 C.3     1  UNL1        0.0857
     22 C           8.2208   -0.2164    0.0000 C.2     1  UNL1       -0.0449
     23 C           3.9172    0.8543    0.0000 C.2     1  UNL1        0.3166
     24 C           5.7641    1.5117    0.0000 C.2     1  UNL1        0.3088
     25 C           3.1986    0.3916    0.0000 C.3     1  UNL1       -0.0465
     26 C           9.0244    0.3788    0.0000 C.2     1  UNL1       -0.0967
     27 H           5.8553   -1.6407    0.0000 H       1  UNL1        0.0345
     28 H           4.6643    0.7246    0.0000 H       1  UNL1        0.0359
     29 H           6.3909    0.8148    0.0000 H       1  UNL1        0.0423
     30 H           7.3152   -1.4849    0.0000 H       1  UNL1        0.0302
     31 H           6.6972   -1.0980    0.0000 H       1  UNL1        0.0302
     32 H           7.1126    0.7952    0.0000 H       1  UNL1        0.0316
     33 H           7.8810    0.7097    0.0000 H       1  UNL1        0.0316
     34 H           6.8352   -2.2937    0.0000 H       1  UNL1        0.0270
     35 H           6.1799   -1.8836    0.0000 H       1  UNL1        0.0270
     36 H           5.2489   -1.9250    0.0000 H       1  UNL1        0.0330
     37 H           4.4848   -2.1659    0.0000 H       1  UNL1        0.0330
     38 H           8.2024   -2.1081    0.0000 H       1  UNL1        0.0296
     39 H           7.4731   -2.3645    0.0000 H       1  UNL1        0.0296
     40 H           3.1120   -0.9273    0.0000 H       1  UNL1        0.0630
     41 H           3.9871   -1.9721    0.0000 H       1  UNL1        0.0621
     42 H           3.0863   -0.2181    0.0000 H       1  UNL1        0.0241
     43 H           2.5889    0.5039    0.0000 H       1  UNL1        0.0241
     44 H           3.3110    1.0013    0.0000 H       1  UNL1        0.0241
     45 H           9.3858   -2.0668    0.0000 H       1  UNL1        0.2106
     46 H           8.9540    0.9947    0.0000 H       1  UNL1        0.0535
     47 H           9.5931    0.1318    0.0000 H       1  UNL1        0.0535
     48 H           2.1387   -0.6978    0.0000 H       1  UNL1        0.2099
     49 H           3.3019   -2.7005    0.0000 H       1  UNL1        0.2099
     50 H           6.5330    2.7005    0.0000 H       1  UNL1        0.2951
@<TRIPOS>BOND
     1     9     1    1
     2     1    23    1
     3    15     2    1
     4     2    45    1
     5    20     3    1
     6     3    48    1
     7    21     4    1
     8     4    49    1
     9     5    23    2
    10     6    24    1
    11     6    50    1
    12     7    24    2
    13     8    10    1
    14     8    12    1
    15     8    14    1
    16     8    16    1
    17     9    10    1
    18     9    11    1
    19     9    18    1
    20    10    17    1
    21    10    27    1
    22    11    12    1
    23    11    13    1
    24    11    28    1
    25    12    24    1
    26    12    29    1
    27    13    20    1
    28    13    23    1
    29    13    25    1
    30    14    15    1
    31    14    30    1
    32    14    31    1
    33    15    19    1
    34    15    22    1
    35    16    22    1
    36    16    32    1
    37    16    33    1
    38    17    19    1
    39    17    34    1
    40    17    35    1
    41    18    21    1
    42    18    36    1
    43    18    37    1
    44    19    38    1
    45    19    39    1
    46    20    21    1
    47    20    40    1
    48    21    41    1
    49    22    26    2
    50    25    42    1
    51    25    43    1
    52    25    44    1
    53    26    46    1
    54    26    47    1
