@<TRIPOS>MOLECULE
IMPHY015312
 26 26 0 0 0
SMALL
GASTEIGER

@<TRIPOS>ATOM
      1 O           2.8660   -1.7500    0.0000 O.3     1  UNL1       -0.4914
      2 O           4.5981   -2.7500    0.0000 O.3     1  UNL1       -0.4915
      3 O           6.3301    3.2500    0.0000 O.2     1  UNL1       -0.2963
      4 C           4.5981    0.2500    0.0000 C.ar    1  UNL1       -0.0212
      5 C           3.7320   -1.2500    0.0000 C.ar    1  UNL1        0.1620
      6 C           4.5981   -1.7500    0.0000 C.ar    1  UNL1        0.1615
      7 C           3.7320   -0.2500    0.0000 C.ar    1  UNL1       -0.0092
      8 C           5.4641   -0.2500    0.0000 C.ar    1  UNL1       -0.0509
      9 C           5.4641   -1.2500    0.0000 C.ar    1  UNL1       -0.0157
     10 C           4.5981    1.2500    0.0000 C.2     1  UNL1       -0.0515
     11 C           5.4641    1.7500    0.0000 C.2     1  UNL1       -0.0219
     12 C           2.0000   -1.2500    0.0000 C.3     1  UNL1        0.0790
     13 C           5.4641   -3.2500    0.0000 C.3     1  UNL1        0.0790
     14 C           5.4641    2.7500    0.0000 C.2     1  UNL1        0.1431
     15 H           3.1951    0.0600    0.0000 H       1  UNL1        0.0661
     16 H           6.0010    0.0600    0.0000 H       1  UNL1        0.0625
     17 H           6.0010   -1.5600    0.0000 H       1  UNL1        0.0655
     18 H           4.0611    1.5600    0.0000 H       1  UNL1        0.0624
     19 H           6.0010    1.4400    0.0000 H       1  UNL1        0.0650
     20 H           2.3100   -0.7131    0.0000 H       1  UNL1        0.0660
     21 H           1.4631   -0.9400    0.0000 H       1  UNL1        0.0660
     22 H           1.6900   -1.7869    0.0000 H       1  UNL1        0.0660
     23 H           5.1541   -3.7869    0.0000 H       1  UNL1        0.0660
     24 H           6.0010   -3.5600    0.0000 H       1  UNL1        0.0660
     25 H           5.7741   -2.7131    0.0000 H       1  UNL1        0.0660
     26 H           4.9272    3.0600    0.0000 H       1  UNL1        0.1075
@<TRIPOS>BOND
     1     1     5    1
     2     1    12    1
     3     2     6    1
     4     2    13    1
     5     3    14    2
     6     4     7   ar
     7     4     8   ar
     8     4    10    1
     9     5     6   ar
    10     5     7   ar
    11     6     9   ar
    12     7    15    1
    13     8     9   ar
    14     8    16    1
    15     9    17    1
    16    10    11    2
    17    10    18    1
    18    11    14    1
    19    11    19    1
    20    12    20    1
    21    12    21    1
    22    12    22    1
    23    13    23    1
    24    13    24    1
    25    13    25    1
    26    14    26    1
