@<TRIPOS>MOLECULE
IMPHY004364
 33 35 0 0 0
SMALL
GASTEIGER

@<TRIPOS>ATOM
      1 O           6.0682   -2.0427    0.0000 O.2     1  UNL1       -0.4620
      2 O          10.3984   -0.5427    0.0000 O.3     1  UNL1       -0.4914
      3 O           6.0682    0.9573    0.0000 O.2     1  UNL1       -0.2864
      4 O          10.3984    1.4573    0.0000 O.3     1  UNL1       -0.5033
      5 O           2.5381   -2.0668    0.0000 O.3     1  UNL1       -0.5066
      6 C           6.9343   -0.5427    0.0000 C.ar    1  UNL1        0.0644
      7 C           5.2022   -0.5427    0.0000 C.ar    1  UNL1        0.0648
      8 C           7.8003   -0.0427    0.0000 C.ar    1  UNL1       -0.0076
      9 C           6.0682   -0.0427    0.0000 C.ar    1  UNL1        0.2001
     10 C           5.2022   -1.5427    0.0000 C.ar    1  UNL1        0.1419
     11 C           6.9343   -1.5427    0.0000 C.ar    1  UNL1        0.1038
     12 C           8.6663   -0.5427    0.0000 C.ar    1  UNL1       -0.0084
     13 C           4.3083   -0.0080    0.0000 C.ar    1  UNL1       -0.0439
     14 C           7.8003    0.9573    0.0000 C.ar    1  UNL1       -0.0501
     15 C           4.3083   -2.0773    0.0000 C.ar    1  UNL1        0.0228
     16 C           9.5323   -0.0427    0.0000 C.ar    1  UNL1        0.1618
     17 C           8.6663    1.4573    0.0000 C.ar    1  UNL1       -0.0159
     18 C           3.4022   -1.5635    0.0000 C.ar    1  UNL1        0.1204
     19 C           3.4022   -0.5219    0.0000 C.ar    1  UNL1       -0.0193
     20 C           9.5323    0.9573    0.0000 C.ar    1  UNL1        0.1585
     21 C          10.3984   -1.5427    0.0000 C.3     1  UNL1        0.0790
     22 H           7.4712   -1.8527    0.0000 H       1  UNL1        0.1037
     23 H           8.6663   -1.1627    0.0000 H       1  UNL1        0.0661
     24 H           7.2634    1.2673    0.0000 H       1  UNL1        0.0625
     25 H           4.3154    0.6120    0.0000 H       1  UNL1        0.0627
     26 H           4.3154   -2.6973    0.0000 H       1  UNL1        0.0691
     27 H           8.6663    2.0773    0.0000 H       1  UNL1        0.0655
     28 H           2.8665   -0.2098    0.0000 H       1  UNL1        0.0654
     29 H          10.3984    2.0773    0.0000 H       1  UNL1        0.2923
     30 H           2.0000   -1.7589    0.0000 H       1  UNL1        0.2921
     31 H           9.7784   -1.5427    0.0000 H       1  UNL1        0.0660
     32 H          10.3984   -2.1627    0.0000 H       1  UNL1        0.0660
     33 H          11.0184   -1.5427    0.0000 H       1  UNL1        0.0660
@<TRIPOS>BOND
     1     1    10   ar
     2     1    11   ar
     3     2    16    1
     4     2    21    1
     5     3     9    2
     6     4    20    1
     7     4    29    1
     8     5    18    1
     9     5    30    1
    10     6     8    1
    11     6     9   ar
    12     6    11   ar
    13     7     9   ar
    14     7    10   ar
    15     7    13   ar
    16     8    12   ar
    17     8    14   ar
    18    10    15   ar
    19    11    22    1
    20    12    16   ar
    21    12    23    1
    22    13    19   ar
    23    13    25    1
    24    14    17   ar
    25    14    24    1
    26    15    18   ar
    27    15    26    1
    28    16    20   ar
    29    17    20   ar
    30    17    27    1
    31    18    19   ar
    32    19    28    1
    33    21    31    1
    34    21    32    1
    35    21    33    1
