@<TRIPOS>MOLECULE
IMPHY015115
 22 21 0 0 0
SMALL
GASTEIGER

@<TRIPOS>ATOM
      1 O           5.1350   -1.2500    0.0000 O.3     1  UNL1       -0.3865
      2 O           6.0010    1.2500    0.0000 O.3     1  UNL1       -0.3869
      3 O           4.2690    1.2500    0.0000 O.3     1  UNL1       -0.3869
      4 O           7.7331    0.2500    0.0000 O.3     1  UNL1       -0.3924
      5 O           2.5369    0.2500    0.0000 O.3     1  UNL1       -0.3924
      6 C           5.1350   -0.2500    0.0000 C.3     1  UNL1        0.1111
      7 C           6.0010    0.2500    0.0000 C.3     1  UNL1        0.1065
      8 C           4.2690    0.2500    0.0000 C.3     1  UNL1        0.1065
      9 C           6.8671   -0.2500    0.0000 C.3     1  UNL1        0.0727
     10 C           3.4030   -0.2500    0.0000 C.3     1  UNL1        0.0727
     11 H           5.6720   -0.5600    0.0000 H       1  UNL1        0.0647
     12 H           6.5380    0.5600    0.0000 H       1  UNL1        0.0643
     13 H           4.8059    0.5600    0.0000 H       1  UNL1        0.0643
     14 H           6.4685   -0.7249    0.0000 H       1  UNL1        0.0584
     15 H           7.2656   -0.7249    0.0000 H       1  UNL1        0.0584
     16 H           3.0044   -0.7249    0.0000 H       1  UNL1        0.0584
     17 H           3.8015   -0.7249    0.0000 H       1  UNL1        0.0584
     18 H           4.5981   -1.5600    0.0000 H       1  UNL1        0.2100
     19 H           6.5380    1.5600    0.0000 H       1  UNL1        0.2100
     20 H           3.7320    1.5600    0.0000 H       1  UNL1        0.2100
     21 H           8.2700   -0.0600    0.0000 H       1  UNL1        0.2095
     22 H           2.0000   -0.0600    0.0000 H       1  UNL1        0.2095
@<TRIPOS>BOND
     1     1     6    1
     2     1    18    1
     3     7     2    1
     4     2    19    1
     5     8     3    1
     6     3    20    1
     7     4     9    1
     8     4    21    1
     9     5    10    1
    10     5    22    1
    11     6     7    1
    12     6     8    1
    13     6    11    1
    14     7     9    1
    15     7    12    1
    16     8    10    1
    17     8    13    1
    18     9    14    1
    19     9    15    1
    20    10    16    1
    21    10    17    1
