@<TRIPOS>MOLECULE
IMPHY006654
 29 31 0 0 0
SMALL
GASTEIGER

@<TRIPOS>ATOM
      1 O           7.2901    0.8576    0.0000 O.3     1  UNL1       -0.4815
      2 O           3.7702    0.8576    0.0000 O.2     1  UNL1       -0.4220
      3 O           2.0000    0.8471    0.0000 O.2     1  UNL1       -0.2452
      4 C           8.1962    0.3438    0.0000 C.3     1  UNL1        0.1235
      5 C           6.3961    0.3230    0.0000 C.ar    1  UNL1        0.1324
      6 C           6.3961   -0.6770    0.0000 C.ar    1  UNL1        0.0173
      7 C           8.1962   -0.6979    0.0000 C.2     1  UNL1       -0.0409
      8 C           9.1962    0.3476    0.0000 C.3     1  UNL1       -0.0215
      9 C           8.6928    1.2117    0.0000 C.3     1  UNL1       -0.0215
     10 C           7.2901   -1.2117    0.0000 C.2     1  UNL1       -0.0513
     11 C           5.5301   -1.1770    0.0000 C.ar    1  UNL1       -0.0404
     12 C           5.5301    0.8230    0.0000 C.ar    1  UNL1        0.0237
     13 C           4.6641   -0.6770    0.0000 C.ar    1  UNL1        0.0184
     14 C           4.6641    0.3230    0.0000 C.ar    1  UNL1        0.1426
     15 C           3.7702   -1.2117    0.0000 C.ar    1  UNL1       -0.0443
     16 C           2.8641   -0.6979    0.0000 C.ar    1  UNL1        0.0236
     17 C           2.8641    0.3438    0.0000 C.ar    1  UNL1        0.3372
     18 H           8.7319   -1.0099    0.0000 H       1  UNL1        0.0611
     19 H           9.1985   -0.2724    0.0000 H       1  UNL1        0.0271
     20 H           9.8162    0.3500    0.0000 H       1  UNL1        0.0271
     21 H           9.1938    0.9676    0.0000 H       1  UNL1        0.0271
     22 H           9.2310    0.9038    0.0000 H       1  UNL1        0.0271
     23 H           9.0008    1.7498    0.0000 H       1  UNL1        0.0271
     24 H           8.1547    1.5196    0.0000 H       1  UNL1        0.0271
     25 H           7.2829   -1.8317    0.0000 H       1  UNL1        0.0623
     26 H           5.5301   -1.7970    0.0000 H       1  UNL1        0.0632
     27 H           5.5301    1.4430    0.0000 H       1  UNL1        0.0691
     28 H           3.7773   -1.8317    0.0000 H       1  UNL1        0.0627
     29 H           2.3284   -1.0099    0.0000 H       1  UNL1        0.0689
@<TRIPOS>BOND
     1     1     4    1
     2     1     5    1
     3     2    14   ar
     4     2    17   ar
     5     3    17    2
     6     4     7    1
     7     4     8    1
     8     4     9    1
     9     5     6   ar
    10     5    12   ar
    11     6    10    1
    12     6    11   ar
    13     7    10    2
    14     7    18    1
    15     8    19    1
    16     8    20    1
    17     8    21    1
    18     9    22    1
    19     9    23    1
    20     9    24    1
    21    10    25    1
    22    11    13   ar
    23    11    26    1
    24    12    14   ar
    25    12    27    1
    26    13    14   ar
    27    13    15   ar
    28    15    16   ar
    29    15    28    1
    30    16    17   ar
    31    16    29    1
