@<TRIPOS>MOLECULE
IMPHY016086
 54 55 0 0 0
SMALL
GASTEIGER

@<TRIPOS>ATOM
      1 O           3.7320    1.5000    0.0000 O.3     1  UNL1       -0.4602
      2 O           4.5981    3.0000    0.0000 O.2     1  UNL1       -0.2508
      3 C           6.3301   -3.0000    0.0000 C.3     1  UNL1       -0.0162
      4 C           5.4641   -3.5000    0.0000 C.3     1  UNL1       -0.0373
      5 C           6.3301   -2.0000    0.0000 C.2     1  UNL1       -0.0604
      6 C           5.4641   -1.5000    0.0000 C.3     1  UNL1       -0.0010
      7 C           7.2764   -3.3047    0.0000 C.3     1  UNL1       -0.0426
      8 C           4.5981   -3.0000    0.0000 C.3     1  UNL1       -0.0491
      9 C           4.5981   -2.0000    0.0000 C.3     1  UNL1       -0.0428
     10 C           7.8600   -2.5000    0.0000 C.3     1  UNL1       -0.0312
     11 C           7.2764   -1.6953    0.0000 C.2     1  UNL1       -0.0725
     12 C           5.4641   -4.5000    0.0000 C.3     1  UNL1       -0.0619
     13 C           5.4641   -0.5000    0.0000 C.2     1  UNL1       -0.0747
     14 C           7.5870   -0.7447    0.0000 C.3     1  UNL1       -0.0435
     15 C           4.5981    0.0000    0.0000 C.2     1  UNL1       -0.0391
     16 C           4.5981    1.0000    0.0000 C.3     1  UNL1        0.1134
     17 C           3.7320   -0.5000    0.0000 C.3     1  UNL1       -0.0406
     18 C           3.7320    2.5000    0.0000 C.2     1  UNL1        0.3076
     19 C           2.8660    3.0000    0.0000 C.3     1  UNL1        0.0473
     20 C           2.8660    4.0000    0.0000 C.3     1  UNL1       -0.0367
     21 C           2.0000    4.5000    0.0000 C.3     1  UNL1       -0.0622
     22 C           3.7320    4.5000    0.0000 C.3     1  UNL1       -0.0622
     23 H           6.3957   -3.6165    0.0000 H       1  UNL1        0.0349
     24 H           6.0010   -3.8100    0.0000 H       1  UNL1        0.0304
     25 H           6.0010   -1.1900    0.0000 H       1  UNL1        0.0388
     26 H           7.0253   -3.8716    0.0000 H       1  UNL1        0.0274
     27 H           7.8137   -3.6140    0.0000 H       1  UNL1        0.0274
     28 H           3.9875   -2.8923    0.0000 H       1  UNL1        0.0268
     29 H           4.3860   -3.5826    0.0000 H       1  UNL1        0.0268
     30 H           4.3860   -1.4174    0.0000 H       1  UNL1        0.0274
     31 H           3.9875   -2.1077    0.0000 H       1  UNL1        0.0274
     32 H           8.3208   -2.9147    0.0000 H       1  UNL1        0.0310
     33 H           8.3208   -2.0853    0.0000 H       1  UNL1        0.0310
     34 H           4.8441   -4.5000    0.0000 H       1  UNL1        0.0233
     35 H           5.4641   -5.1200    0.0000 H       1  UNL1        0.0233
     36 H           6.0841   -4.5000    0.0000 H       1  UNL1        0.0233
     37 H           6.0010   -0.1900    0.0000 H       1  UNL1        0.0579
     38 H           8.1763   -0.9374    0.0000 H       1  UNL1        0.0274
     39 H           7.7796   -0.1554    0.0000 H       1  UNL1        0.0274
     40 H           6.9977   -0.5521    0.0000 H       1  UNL1        0.0274
     41 H           5.2087    0.8923    0.0000 H       1  UNL1        0.0745
     42 H           4.8101    1.5826    0.0000 H       1  UNL1        0.0745
     43 H           3.4220    0.0369    0.0000 H       1  UNL1        0.0275
     44 H           3.1951   -0.8100    0.0000 H       1  UNL1        0.0275
     45 H           4.0420   -1.0369    0.0000 H       1  UNL1        0.0275
     46 H           2.2554    3.1077    0.0000 H       1  UNL1        0.0380
     47 H           2.6540    2.4174    0.0000 H       1  UNL1        0.0380
     48 H           2.8660    4.6200    0.0000 H       1  UNL1        0.0301
     49 H           2.3100    5.0369    0.0000 H       1  UNL1        0.0232
     50 H           1.4631    4.8100    0.0000 H       1  UNL1        0.0232
     51 H           1.6900    3.9631    0.0000 H       1  UNL1        0.0232
     52 H           4.0420    3.9631    0.0000 H       1  UNL1        0.0232
     53 H           4.2690    4.8100    0.0000 H       1  UNL1        0.0232
     54 H           3.4220    5.0369    0.0000 H       1  UNL1        0.0232
@<TRIPOS>BOND
     1     1    16    1
     2     1    18    1
     3     2    18    2
     4     3     4    1
     5     3     5    1
     6     3     7    1
     7     3    23    1
     8     4     8    1
     9     4    12    1
    10     4    24    1
    11     5     6    1
    12     5    11    2
    13     6     9    1
    14     6    13    1
    15     6    25    1
    16     7    10    1
    17     7    26    1
    18     7    27    1
    19     8     9    1
    20     8    28    1
    21     8    29    1
    22     9    30    1
    23     9    31    1
    24    10    11    1
    25    10    32    1
    26    10    33    1
    27    11    14    1
    28    12    34    1
    29    12    35    1
    30    12    36    1
    31    13    15    2
    32    13    37    1
    33    14    38    1
    34    14    39    1
    35    14    40    1
    36    15    16    1
    37    15    17    1
    38    16    41    1
    39    16    42    1
    40    17    43    1
    41    17    44    1
    42    17    45    1
    43    18    19    1
    44    19    20    1
    45    19    46    1
    46    19    47    1
    47    20    21    1
    48    20    22    1
    49    20    48    1
    50    21    49    1
    51    21    50    1
    52    21    51    1
    53    22    52    1
    54    22    53    1
    55    22    54    1
