@<TRIPOS>MOLECULE
IMPHY015043
 50 54 0 0 0
SMALL
GASTEIGER

@<TRIPOS>ATOM
      1 O           5.7497    3.0374    0.0000 O.3     1  UNL1       -0.4637
      2 O           2.8197    1.9626    0.0000 O.2     1  UNL1       -0.2916
      3 O           7.1333    1.9234    0.0000 O.2     1  UNL1       -0.2505
      4 O           3.4519   -2.6190    0.0000 O.3     1  UNL1       -0.4526
      5 O           2.0000   -1.7807    0.0000 O.3     1  UNL1       -0.4526
      6 O           8.8819    0.4626    0.0000 O.3     1  UNL1       -0.4913
      7 O           7.1498   -2.5374    0.0000 O.3     1  UNL1       -0.4913
      8 O           8.8819   -1.5374    0.0000 O.3     1  UNL1       -0.4885
      9 C           5.4178    1.4626    0.0000 C.3     1  UNL1        0.0801
     10 C           4.5518    1.9626    0.0000 C.3     1  UNL1        0.0700
     11 C           5.4178    0.4626    0.0000 C.3     1  UNL1        0.0239
     12 C           4.5518   -0.0374    0.0000 C.ar    1  UNL1       -0.0250
     13 C           4.7610    2.9344    0.0000 C.3     1  UNL1        0.1031
     14 C           3.6857    1.4626    0.0000 C.2     1  UNL1        0.1707
     15 C           3.6857    0.4626    0.0000 C.ar    1  UNL1        0.0253
     16 C           6.1548    2.1296    0.0000 C.2     1  UNL1        0.3119
     17 C           6.2838   -0.0374    0.0000 C.ar    1  UNL1       -0.0320
     18 C           4.5678   -1.0789    0.0000 C.ar    1  UNL1       -0.0117
     19 C           2.7757   -0.0443    0.0000 C.ar    1  UNL1       -0.0054
     20 C           3.6698   -1.6067    0.0000 C.ar    1  UNL1        0.1665
     21 C           6.2838   -1.0374    0.0000 C.ar    1  UNL1       -0.0123
     22 C           7.1498    0.4626    0.0000 C.ar    1  UNL1       -0.0123
     23 C           2.7677   -1.0859    0.0000 C.ar    1  UNL1        0.1669
     24 C           8.0159   -0.0374    0.0000 C.ar    1  UNL1        0.1654
     25 C           7.1498   -1.5374    0.0000 C.ar    1  UNL1        0.1654
     26 C           8.0159   -1.0374    0.0000 C.ar    1  UNL1        0.2035
     27 C           2.4220   -2.7263    0.0000 C.3     1  UNL1        0.2332
     28 C           8.8819    1.4626    0.0000 C.3     1  UNL1        0.0790
     29 C           8.0159   -3.0374    0.0000 C.3     1  UNL1        0.0790
     30 C           9.7479   -1.0374    0.0000 C.3     1  UNL1        0.0791
     31 H           6.1947    1.1178    0.0000 H       1  UNL1        0.0431
     32 H           3.8647    2.4631    0.0000 H       1  UNL1        0.0423
     33 H           5.4178   -0.1574    0.0000 H       1  UNL1        0.0406
     34 H           4.7618    3.5544    0.0000 H       1  UNL1        0.0705
     35 H           4.1445    3.0004    0.0000 H       1  UNL1        0.0705
     36 H           5.1083   -1.3827    0.0000 H       1  UNL1        0.0658
     37 H           2.2424    0.2719    0.0000 H       1  UNL1        0.0662
     38 H           5.7469   -1.3474    0.0000 H       1  UNL1        0.0658
     39 H           7.1498    1.0826    0.0000 H       1  UNL1        0.0658
     40 H           1.8324   -2.9181    0.0000 H       1  UNL1        0.1166
     41 H           2.5507   -3.3328    0.0000 H       1  UNL1        0.1166
     42 H           9.5019    1.4626    0.0000 H       1  UNL1        0.0660
     43 H           8.8819    2.0826    0.0000 H       1  UNL1        0.0660
     44 H           8.2619    1.4626    0.0000 H       1  UNL1        0.0660
     45 H           7.7059   -3.5744    0.0000 H       1  UNL1        0.0660
     46 H           8.5528   -3.3474    0.0000 H       1  UNL1        0.0660
     47 H           8.3259   -2.5005    0.0000 H       1  UNL1        0.0660
     48 H          10.0579   -1.5744    0.0000 H       1  UNL1        0.0660
     49 H          10.2848   -0.7274    0.0000 H       1  UNL1        0.0660
     50 H           9.4379   -0.5005    0.0000 H       1  UNL1        0.0660
@<TRIPOS>BOND
     1     1    13    1
     2     1    16    1
     3     2    14    2
     4     3    16    2
     5     4    20    1
     6     4    27    1
     7     5    23    1
     8     5    27    1
     9     6    24    1
    10     6    28    1
    11     7    25    1
    12     7    29    1
    13     8    26    1
    14     8    30    1
    15     9    10    1
    16     9    11    1
    17     9    16    1
    18     9    31    1
    19    10    13    1
    20    10    14    1
    21    10    32    1
    22    11    12    1
    23    11    17    1
    24    11    33    1
    25    12    15   ar
    26    12    18   ar
    27    13    34    1
    28    13    35    1
    29    14    15    1
    30    15    19   ar
    31    17    21   ar
    32    17    22   ar
    33    18    20   ar
    34    18    36    1
    35    19    23   ar
    36    19    37    1
    37    20    23   ar
    38    21    25   ar
    39    21    38    1
    40    22    24   ar
    41    22    39    1
    42    24    26   ar
    43    25    26   ar
    44    27    40    1
    45    27    41    1
    46    28    42    1
    47    28    43    1
    48    28    44    1
    49    29    45    1
    50    29    46    1
    51    29    47    1
    52    30    48    1
    53    30    49    1
    54    30    50    1
