@<TRIPOS>MOLECULE
IMPHY016260
 17 16 0 0 0
SMALL
GASTEIGER

@<TRIPOS>ATOM
      1 O           2.0000   -0.0600    0.0000 O.2     1  UNL1       -0.3007
      2 C           3.7320   -0.0600    0.0000 C.3     1  UNL1        0.0151
      3 C           4.5981    0.4400    0.0000 C.3     1  UNL1       -0.0260
      4 C           3.7320   -1.0600    0.0000 C.3     1  UNL1       -0.0557
      5 C           2.8660    0.4400    0.0000 C.2     1  UNL1        0.1234
      6 C           5.4641   -0.0600    0.0000 C.2     1  UNL1       -0.0905
      7 C           6.3301    0.4400    0.0000 C.2     1  UNL1       -0.1026
      8 H           3.7320    0.5600    0.0000 H       1  UNL1        0.0375
      9 H           4.9966    0.9149    0.0000 H       1  UNL1        0.0314
     10 H           4.1996    0.9149    0.0000 H       1  UNL1        0.0314
     11 H           3.1120   -1.0600    0.0000 H       1  UNL1        0.0236
     12 H           3.7320   -1.6800    0.0000 H       1  UNL1        0.0236
     13 H           4.3520   -1.0600    0.0000 H       1  UNL1        0.0236
     14 H           2.8660    1.0600    0.0000 H       1  UNL1        0.1029
     15 H           5.4641   -0.6800    0.0000 H       1  UNL1        0.0566
     16 H           6.8671    0.1300    0.0000 H       1  UNL1        0.0532
     17 H           6.3301    1.0600    0.0000 H       1  UNL1        0.0532
@<TRIPOS>BOND
     1     1     5    2
     2     2     3    1
     3     2     4    1
     4     2     5    1
     5     2     8    1
     6     3     6    1
     7     3     9    1
     8     3    10    1
     9     4    11    1
    10     4    12    1
    11     4    13    1
    12     5    14    1
    13     6     7    2
    14     6    15    1
    15     7    16    1
    16     7    17    1
