@<TRIPOS>MOLECULE
IMPHY011771
 52 55 0 0 0
SMALL
GASTEIGER

@<TRIPOS>ATOM
      1 O           2.3052   -2.1910    0.0000 O.3     1  UNL1       -0.4802
      2 O           3.8128   -3.0437    0.0000 O.2     1  UNL1       -0.2504
      3 C           6.5090    0.3000    0.0000 C.3     1  UNL1       -0.0217
      4 C           5.6405    0.7956    0.0000 C.3     1  UNL1       -0.0294
      5 C           4.7330    0.2843    0.0000 C.3     1  UNL1       -0.0249
      6 C           4.7302   -0.7574    0.0000 C.3     1  UNL1       -0.0198
      7 C           6.4845    1.4813    0.0000 C.3     1  UNL1       -0.0403
      8 C           6.5302   -0.7415    0.0000 C.3     1  UNL1       -0.0465
      9 C           7.1606    2.4504    0.0000 C.3     1  UNL1       -0.0196
     10 C           5.6349   -1.2737    0.0000 C.3     1  UNL1       -0.0482
     11 C           5.4865    1.7837    0.0000 C.3     1  UNL1       -0.0487
     12 C           7.4380    0.6699    0.0000 C.3     1  UNL1       -0.0258
     13 C           3.7975   -1.3118    0.0000 C.3     1  UNL1        0.0681
     14 C           3.8034    0.8437    0.0000 C.3     1  UNL1       -0.0470
     15 C           6.1630    2.5201    0.0000 C.3     1  UNL1       -0.0462
     16 C           7.7280    1.6270    0.0000 C.2     1  UNL1       -0.0730
     17 C           4.3936    1.2249    0.0000 C.3     1  UNL1       -0.0590
     18 C           2.8552   -0.7740    0.0000 C.3     1  UNL1       -0.0372
     19 C           2.8582    0.3110    0.0000 C.3     1  UNL1       -0.0515
     20 C           4.3052   -2.1733    0.0000 C.3     1  UNL1       -0.0491
     21 C           3.3052   -2.1822    0.0000 C.2     1  UNL1        0.3110
     22 C           8.7161    1.7809    0.0000 C.2     1  UNL1       -0.0992
     23 H           4.9023    1.2170    0.0000 H       1  UNL1        0.0312
     24 H           4.7377   -1.6073    0.0000 H       1  UNL1        0.0317
     25 H           6.1103    1.9756    0.0000 H       1  UNL1        0.0276
     26 H           5.8988    1.2778    0.0000 H       1  UNL1        0.0276
     27 H           6.7512   -1.3208    0.0000 H       1  UNL1        0.0271
     28 H           7.1388   -0.6229    0.0000 H       1  UNL1        0.0271
     29 H           7.4071    3.2639    0.0000 H       1  UNL1        0.0346
     30 H           5.2399   -1.7516    0.0000 H       1  UNL1        0.0269
     31 H           6.0382   -1.7446    0.0000 H       1  UNL1        0.0269
     32 H           5.1347    2.2942    0.0000 H       1  UNL1        0.0268
     33 H           4.9105    1.5543    0.0000 H       1  UNL1        0.0268
     34 H           7.5335    0.0573    0.0000 H       1  UNL1        0.0315
     35 H           8.0565    0.6267    0.0000 H       1  UNL1        0.0315
     36 H           4.2093    1.3124    0.0000 H       1  UNL1        0.0271
     37 H           3.4111    1.3238    0.0000 H       1  UNL1        0.0271
     38 H           6.3428    3.1135    0.0000 H       1  UNL1        0.0271
     39 H           5.6246    2.8275    0.0000 H       1  UNL1        0.0271
     40 H           4.9768    1.4353    0.0000 H       1  UNL1        0.0235
     41 H           4.1831    1.8081    0.0000 H       1  UNL1        0.0235
     42 H           3.8104    1.0144    0.0000 H       1  UNL1        0.0235
     43 H           2.2446   -0.6662    0.0000 H       1  UNL1        0.0276
     44 H           2.6446   -1.3571    0.0000 H       1  UNL1        0.0276
     45 H           2.6507    0.8953    0.0000 H       1  UNL1        0.0266
     46 H           2.2470    0.2066    0.0000 H       1  UNL1        0.0266
     47 H           3.7710   -2.4881    0.0000 H       1  UNL1        0.0240
     48 H           4.6199   -2.7075    0.0000 H       1  UNL1        0.0240
     49 H           4.8393   -1.8586    0.0000 H       1  UNL1        0.0240
     50 H           9.1051    1.2981    0.0000 H       1  UNL1        0.0534
     51 H           8.9397    2.3592    0.0000 H       1  UNL1        0.0534
     52 H           2.0000   -2.7307    0.0000 H       1  UNL1        0.2951
@<TRIPOS>BOND
     1     1    21    1
     2     1    52    1
     3     2    21    2
     4     3     4    1
     5     3     7    1
     6     3     8    1
     7     3    12    1
     8     4     5    1
     9     4    11    1
    10     4    23    1
    11     5     6    1
    12     5    14    1
    13     5    17    1
    14     6    10    1
    15     6    13    1
    16     6    24    1
    17     7     9    1
    18     7    25    1
    19     7    26    1
    20     8    10    1
    21     8    27    1
    22     8    28    1
    23     9    15    1
    24     9    16    1
    25     9    29    1
    26    10    30    1
    27    10    31    1
    28    11    15    1
    29    11    32    1
    30    11    33    1
    31    12    16    1
    32    12    34    1
    33    12    35    1
    34    13    18    1
    35    13    20    1
    36    13    21    1
    37    14    19    1
    38    14    36    1
    39    14    37    1
    40    15    38    1
    41    15    39    1
    42    16    22    2
    43    17    40    1
    44    17    41    1
    45    17    42    1
    46    18    19    1
    47    18    43    1
    48    18    44    1
    49    19    45    1
    50    19    46    1
    51    20    47    1
    52    20    48    1
    53    20    49    1
    54    22    50    1
    55    22    51    1
