@<TRIPOS>MOLECULE
IMPHY001837
 34 36 0 0 0
SMALL
GASTEIGER

@<TRIPOS>ATOM
      1 O           4.6660   -0.9254    0.0000 O.2     1  UNL1       -0.4593
      2 O           2.9176    2.1092    0.0000 O.3     1  UNL1       -0.5059
      3 O           4.6660    2.0746    0.0000 O.2     1  UNL1       -0.2869
      4 C           6.3981   -0.9254    0.0000 C.3     1  UNL1        0.0096
      5 C           7.2641   -0.4254    0.0000 C.3     1  UNL1       -0.0208
      6 C           5.5321   -0.4254    0.0000 C.ar    1  UNL1        0.1096
      7 C           8.1301   -0.9254    0.0000 C.ar    1  UNL1       -0.0470
      8 C           3.8000    0.5746    0.0000 C.ar    1  UNL1        0.1052
      9 C           3.8000   -0.4254    0.0000 C.ar    1  UNL1        0.1423
     10 C           5.5321    0.5746    0.0000 C.ar    1  UNL1        0.0240
     11 C           4.6660    1.0746    0.0000 C.ar    1  UNL1        0.1963
     12 C           2.9061    1.1093    0.0000 C.ar    1  UNL1        0.1312
     13 C           8.1301   -1.9254    0.0000 C.ar    1  UNL1       -0.0586
     14 C           8.9962   -0.4254    0.0000 C.ar    1  UNL1       -0.0586
     15 C           2.9061   -0.9601    0.0000 C.ar    1  UNL1       -0.0184
     16 C           2.0000    0.5954    0.0000 C.ar    1  UNL1       -0.0192
     17 C           2.0000   -0.4462    0.0000 C.ar    1  UNL1       -0.0548
     18 C           8.9962   -2.4254    0.0000 C.ar    1  UNL1       -0.0615
     19 C           9.8622   -0.9254    0.0000 C.ar    1  UNL1       -0.0615
     20 C           9.8622   -1.9254    0.0000 C.ar    1  UNL1       -0.0617
     21 H           5.9996   -1.4003    0.0000 H       1  UNL1        0.0347
     22 H           6.7966   -1.4003    0.0000 H       1  UNL1        0.0347
     23 H           7.6626    0.0496    0.0000 H       1  UNL1        0.0317
     24 H           6.8656    0.0496    0.0000 H       1  UNL1        0.0317
     25 H           6.0690    0.8846    0.0000 H       1  UNL1        0.0689
     26 H           7.5932   -2.2354    0.0000 H       1  UNL1        0.0620
     27 H           8.9962    0.1946    0.0000 H       1  UNL1        0.0620
     28 H           2.9132   -1.5800    0.0000 H       1  UNL1        0.0654
     29 H           1.4643    0.9075    0.0000 H       1  UNL1        0.0654
     30 H           1.4643   -0.7583    0.0000 H       1  UNL1        0.0620
     31 H           8.9962   -3.0454    0.0000 H       1  UNL1        0.0618
     32 H          10.3991   -0.6154    0.0000 H       1  UNL1        0.0618
     33 H          10.3991   -2.2354    0.0000 H       1  UNL1        0.0618
     34 H           2.3843    2.4254    0.0000 H       1  UNL1        0.2922
@<TRIPOS>BOND
     1     1     6   ar
     2     1     9   ar
     3     2    12    1
     4     2    34    1
     5     3    11    2
     6     4     5    1
     7     4     6    1
     8     4    21    1
     9     4    22    1
    10     5     7    1
    11     5    23    1
    12     5    24    1
    13     6    10   ar
    14     7    13   ar
    15     7    14   ar
    16     8     9   ar
    17     8    11   ar
    18     8    12   ar
    19     9    15   ar
    20    10    11   ar
    21    10    25    1
    22    12    16   ar
    23    13    18   ar
    24    13    26    1
    25    14    19   ar
    26    14    27    1
    27    15    17   ar
    28    15    28    1
    29    16    17   ar
    30    16    29    1
    31    17    30    1
    32    18    20   ar
    33    18    31    1
    34    19    20   ar
    35    19    32    1
    36    20    33    1
