@<TRIPOS>MOLECULE
IMPHY015873
 35 34 0 0 0
SMALL
GASTEIGER

@<TRIPOS>ATOM
      1 O           3.4030   -0.5600    0.0000 O.3     1  UNL1       -0.3025
      2 N           2.5369   -0.0600    0.0000 N.3     1  UNL1       -0.2147
      3 C           7.7331   -0.0600    0.0000 C.3     1  UNL1       -0.0531
      4 C           8.5991   -0.5600    0.0000 C.3     1  UNL1       -0.0531
      5 C           6.8671   -0.5600    0.0000 C.3     1  UNL1       -0.0530
      6 C           9.4651   -0.0600    0.0000 C.3     1  UNL1       -0.0531
      7 C           6.0010   -0.0600    0.0000 C.3     1  UNL1       -0.0509
      8 C          10.3312   -0.5600    0.0000 C.3     1  UNL1       -0.0533
      9 C           5.1350   -0.5600    0.0000 C.3     1  UNL1       -0.0276
     10 C          11.1972   -0.0600    0.0000 C.3     1  UNL1       -0.0559
     11 C           4.2690   -0.0600    0.0000 C.3     1  UNL1        0.0688
     12 C          12.0632   -0.5600    0.0000 C.3     1  UNL1       -0.0653
     13 H           8.1316    0.4149    0.0000 H       1  UNL1        0.0265
     14 H           7.3346    0.4149    0.0000 H       1  UNL1        0.0265
     15 H           8.2006   -1.0350    0.0000 H       1  UNL1        0.0265
     16 H           8.9976   -1.0350    0.0000 H       1  UNL1        0.0265
     17 H           6.4685   -1.0350    0.0000 H       1  UNL1        0.0265
     18 H           7.2656   -1.0350    0.0000 H       1  UNL1        0.0265
     19 H           9.8637    0.4149    0.0000 H       1  UNL1        0.0265
     20 H           9.0666    0.4149    0.0000 H       1  UNL1        0.0265
     21 H           6.3996    0.4149    0.0000 H       1  UNL1        0.0266
     22 H           5.6025    0.4149    0.0000 H       1  UNL1        0.0266
     23 H           9.9326   -1.0350    0.0000 H       1  UNL1        0.0265
     24 H          10.7297   -1.0350    0.0000 H       1  UNL1        0.0265
     25 H           4.7365   -1.0350    0.0000 H       1  UNL1        0.0288
     26 H           5.5335   -1.0350    0.0000 H       1  UNL1        0.0288
     27 H          11.5957    0.4149    0.0000 H       1  UNL1        0.0263
     28 H          10.7987    0.4149    0.0000 H       1  UNL1        0.0263
     29 H           4.6675    0.4149    0.0000 H       1  UNL1        0.0580
     30 H           3.8705    0.4149    0.0000 H       1  UNL1        0.0580
     31 H          11.7532   -1.0969    0.0000 H       1  UNL1        0.0230
     32 H          12.6002   -0.8700    0.0000 H       1  UNL1        0.0230
     33 H          12.3732   -0.0231    0.0000 H       1  UNL1        0.0230
     34 H           2.0000   -0.3700    0.0000 H       1  UNL1        0.1500
     35 H           2.5369    0.5600    0.0000 H       1  UNL1        0.1500
@<TRIPOS>BOND
     1     1     2    1
     2     1    11    1
     3     2    34    1
     4     2    35    1
     5     3     4    1
     6     3     5    1
     7     3    13    1
     8     3    14    1
     9     4     6    1
    10     4    15    1
    11     4    16    1
    12     5     7    1
    13     5    17    1
    14     5    18    1
    15     6     8    1
    16     6    19    1
    17     6    20    1
    18     7     9    1
    19     7    21    1
    20     7    22    1
    21     8    10    1
    22     8    23    1
    23     8    24    1
    24     9    11    1
    25     9    25    1
    26     9    26    1
    27    10    12    1
    28    10    27    1
    29    10    28    1
    30    11    29    1
    31    11    30    1
    32    12    31    1
    33    12    32    1
    34    12    33    1
