@<TRIPOS>MOLECULE
IMPHY008576
 50 52 0 0 0
SMALL
GASTEIGER

@<TRIPOS>ATOM
      1 O           6.8671   -0.4759    0.0000 O.3     1  UNL1       -0.3451
      2 O           7.3671    3.7859    0.0000 O.3     1  UNL1       -0.4641
      3 O           5.1350   -0.4759    0.0000 O.3     1  UNL1       -0.3405
      4 O           8.8671    2.9199    0.0000 O.2     1  UNL1       -0.2505
      5 O           6.8671   -2.4759    0.0000 O.3     1  UNL1       -0.3841
      6 O           5.1350   -3.4759    0.0000 O.3     1  UNL1       -0.3864
      7 O           3.4030   -2.4759    0.0000 O.3     1  UNL1       -0.3865
      8 O           2.5369   -0.9759    0.0000 O.3     1  UNL1       -0.3924
      9 C           6.3671    2.0539    0.0000 C.3     1  UNL1       -0.0198
     10 C           7.3671    2.0539    0.0000 C.3     1  UNL1        0.0646
     11 C           7.6718    1.1077    0.0000 C.3     1  UNL1       -0.0043
     12 C           6.8671    0.5241    0.0000 C.3     1  UNL1        0.0654
     13 C           6.0623    1.1077    0.0000 C.3     1  UNL1       -0.0223
     14 C           5.8671    2.9199    0.0000 C.3     1  UNL1       -0.0058
     15 C           7.8671    2.9199    0.0000 C.2     1  UNL1        0.3108
     16 C           6.3671    3.7859    0.0000 C.3     1  UNL1        0.0953
     17 C           8.6223    0.7970    0.0000 C.3     1  UNL1       -0.0593
     18 C           4.8671    2.9199    0.0000 C.3     1  UNL1       -0.0590
     19 C           6.0010   -0.9759    0.0000 C.3     1  UNL1        0.1882
     20 C           6.0010   -1.9759    0.0000 C.3     1  UNL1        0.1341
     21 C           5.1350   -2.4759    0.0000 C.3     1  UNL1        0.1141
     22 C           4.2690   -1.9759    0.0000 C.3     1  UNL1        0.1119
     23 C           4.2690   -0.9759    0.0000 C.3     1  UNL1        0.1130
     24 C           3.4030   -0.4759    0.0000 C.3     1  UNL1        0.0730
     25 H           5.7505    1.9883    0.0000 H       1  UNL1        0.0313
     26 H           7.9836    1.9883    0.0000 H       1  UNL1        0.0420
     27 H           8.1112    1.5451    0.0000 H       1  UNL1        0.0331
     28 H           7.4194    0.2423    0.0000 H       1  UNL1        0.0600
     29 H           5.4954    1.3587    0.0000 H       1  UNL1        0.0293
     30 H           5.7531    0.5703    0.0000 H       1  UNL1        0.0293
     31 H           5.5571    3.4568    0.0000 H       1  UNL1        0.0334
     32 H           6.4747    4.3965    0.0000 H       1  UNL1        0.0700
     33 H           5.7844    3.9980    0.0000 H       1  UNL1        0.0700
     34 H           8.4297    0.2077    0.0000 H       1  UNL1        0.0233
     35 H           9.2116    0.6044    0.0000 H       1  UNL1        0.0233
     36 H           8.8149    1.3863    0.0000 H       1  UNL1        0.0233
     37 H           6.0010   -0.3559    0.0000 H       1  UNL1        0.0937
     38 H           4.8671    3.5399    0.0000 H       1  UNL1        0.0234
     39 H           4.2471    2.9199    0.0000 H       1  UNL1        0.0234
     40 H           4.8671    2.2999    0.0000 H       1  UNL1        0.0234
     41 H           6.0010   -2.5959    0.0000 H       1  UNL1        0.0671
     42 H           4.5981   -2.7859    0.0000 H       1  UNL1        0.0648
     43 H           3.7320   -1.6659    0.0000 H       1  UNL1        0.0647
     44 H           4.2690   -0.3559    0.0000 H       1  UNL1        0.0647
     45 H           3.8015   -0.0010    0.0000 H       1  UNL1        0.0584
     46 H           3.0044   -0.0010    0.0000 H       1  UNL1        0.0584
     47 H           6.8671   -3.0959    0.0000 H       1  UNL1        0.2101
     48 H           4.5981   -3.7859    0.0000 H       1  UNL1        0.2100
     49 H           3.4030   -3.0959    0.0000 H       1  UNL1        0.2100
     50 H           2.0000   -0.6659    0.0000 H       1  UNL1        0.2095
@<TRIPOS>BOND
     1     1    12    1
     2     1    19    1
     3     2    15    1
     4     2    16    1
     5     3    19    1
     6     3    23    1
     7     4    15    2
     8     5    20    1
     9     5    47    1
    10     6    21    1
    11     6    48    1
    12     7    22    1
    13     7    49    1
    14     8    24    1
    15     8    50    1
    16     9    10    1
    17     9    13    1
    18     9    14    1
    19     9    25    1
    20    10    11    1
    21    10    15    1
    22    10    26    1
    23    11    12    1
    24    11    17    1
    25    11    27    1
    26    12    13    1
    27    12    28    1
    28    13    29    1
    29    13    30    1
    30    14    16    1
    31    14    18    1
    32    14    31    1
    33    16    32    1
    34    16    33    1
    35    17    34    1
    36    17    35    1
    37    17    36    1
    38    18    38    1
    39    18    39    1
    40    18    40    1
    41    19    20    1
    42    19    37    1
    43    20    21    1
    44    20    41    1
    45    21    22    1
    46    21    42    1
    47    22    23    1
    48    22    43    1
    49    23    24    1
    50    23    44    1
    51    24    45    1
    52    24    46    1
