@<TRIPOS>MOLECULE
IMPHY009750
 40 41 0 0 0
SMALL
GASTEIGER

@<TRIPOS>ATOM
      1 O           4.4150   -1.3144    0.0000 O.3     1  UNL1       -0.4606
      2 O           2.8452   -0.5824    0.0000 O.2     1  UNL1       -0.2505
      3 C           6.2103    0.1839    0.0000 C.3     1  UNL1        0.0104
      4 C           5.7325    2.1325    0.0000 C.3     1  UNL1       -0.0232
      5 C           6.4692    1.1499    0.0000 C.3     1  UNL1       -0.0319
      6 C           4.8376   -0.4081    0.0000 C.3     1  UNL1        0.1092
      7 C           7.6093   -0.3249    0.0000 C.3     1  UNL1       -0.0435
      8 C           4.4956    0.5316    0.0000 C.3     1  UNL1       -0.0118
      9 C           7.8681    0.6410    0.0000 C.3     1  UNL1       -0.0490
     10 C           5.9515   -0.7820    0.0000 C.3     1  UNL1       -0.0557
     11 C           5.8371    3.1270    0.0000 C.3     1  UNL1       -0.0589
     12 C           4.8190    2.5392    0.0000 C.3     1  UNL1       -0.0589
     13 C           3.4188   -1.4015    0.0000 C.2     1  UNL1        0.3099
     14 C           2.9962   -2.3078    0.0000 C.3     1  UNL1        0.0508
     15 C           2.0000   -2.3950    0.0000 C.3     1  UNL1       -0.0525
     16 C           3.5698   -3.1270    0.0000 C.3     1  UNL1       -0.0525
     17 H           6.4551    0.5300    0.0000 H       1  UNL1        0.0307
     18 H           5.2696   -0.8528    0.0000 H       1  UNL1        0.0739
     19 H           7.4143   -0.9134    0.0000 H       1  UNL1        0.0272
     20 H           8.2032   -0.5027    0.0000 H       1  UNL1        0.0272
     21 H           4.3013    1.1204    0.0000 H       1  UNL1        0.0304
     22 H           3.9098    0.3284    0.0000 H       1  UNL1        0.0304
     23 H           8.4621    0.4633    0.0000 H       1  UNL1        0.0268
     24 H           8.0630    1.2296    0.0000 H       1  UNL1        0.0268
     25 H           5.3526   -0.6215    0.0000 H       1  UNL1        0.0236
     26 H           5.7910   -1.3809    0.0000 H       1  UNL1        0.0236
     27 H           6.5504   -0.9425    0.0000 H       1  UNL1        0.0236
     28 H           5.0712    3.1056    0.0000 H       1  UNL1        0.0235
     29 H           4.2526    2.7914    0.0000 H       1  UNL1        0.0235
     30 H           4.5668    1.9728    0.0000 H       1  UNL1        0.0235
     31 H           6.4537    3.0622    0.0000 H       1  UNL1        0.0235
     32 H           5.9019    3.7436    0.0000 H       1  UNL1        0.0235
     33 H           5.2205    3.1918    0.0000 H       1  UNL1        0.0235
     34 H           2.6406   -1.8000    0.0000 H       1  UNL1        0.0408
     35 H           1.9460   -1.7774    0.0000 H       1  UNL1        0.0237
     36 H           1.3824   -2.4490    0.0000 H       1  UNL1        0.0237
     37 H           2.0540   -3.0126    0.0000 H       1  UNL1        0.0237
     38 H           3.0619   -3.4826    0.0000 H       1  UNL1        0.0237
     39 H           3.9254   -3.6349    0.0000 H       1  UNL1        0.0237
     40 H           4.0776   -2.7714    0.0000 H       1  UNL1        0.0237
@<TRIPOS>BOND
     1     1     6    1
     2     1    13    1
     3     2    13    2
     4     3     4    1
     5     3     6    1
     6     3     7    1
     7     3    10    1
     8     4     5    1
     9     4    11    1
    10     4    12    1
    11     5     8    1
    12     5     9    1
    13     5    17    1
    14     6     8    1
    15     6    18    1
    16     7     9    1
    17     7    19    1
    18     7    20    1
    19     8    21    1
    20     8    22    1
    21     9    23    1
    22     9    24    1
    23    10    25    1
    24    10    26    1
    25    10    27    1
    26    11    31    1
    27    11    32    1
    28    11    33    1
    29    12    28    1
    30    12    29    1
    31    12    30    1
    32    13    14    1
    33    14    15    1
    34    14    16    1
    35    14    34    1
    36    15    35    1
    37    15    36    1
    38    15    37    1
    39    16    38    1
    40    16    39    1
    41    16    40    1
