@<TRIPOS>MOLECULE
IMPHY001508
 52 54 0 0 0
SMALL
GASTEIGER

@<TRIPOS>ATOM
      1 O           6.3580   -0.2726    0.0000 O.2     1  UNL1       -0.4507
      2 O           4.5981    2.7621    0.0000 O.3     1  UNL1       -0.4905
      3 O           2.8660    1.7621    0.0000 O.3     1  UNL1       -0.4884
      4 O           2.8660   -0.2379    0.0000 O.3     1  UNL1       -0.4883
      5 O           4.5981   -1.2379    0.0000 O.3     1  UNL1       -0.5008
      6 O           6.3465    2.7967    0.0000 O.2     1  UNL1       -0.2869
      7 O          10.7282    0.2279    0.0000 O.3     1  UNL1       -0.4913
      8 O           8.9846   -2.7654    0.0000 O.3     1  UNL1       -0.4913
      9 O          10.7205   -1.7721    0.0000 O.3     1  UNL1       -0.4885
     10 C           5.4641    1.2621    0.0000 C.ar    1  UNL1        0.1130
     11 C           5.4641    0.2621    0.0000 C.ar    1  UNL1        0.1879
     12 C           7.2641    0.2412    0.0000 C.ar    1  UNL1        0.1396
     13 C           4.5981    1.7621    0.0000 C.ar    1  UNL1        0.1798
     14 C           8.1282   -0.2621    0.0000 C.ar    1  UNL1        0.0245
     15 C           4.5981   -0.2379    0.0000 C.ar    1  UNL1        0.2064
     16 C           6.3580    1.7967    0.0000 C.ar    1  UNL1        0.1969
     17 C           3.7320    1.2621    0.0000 C.ar    1  UNL1        0.2082
     18 C           3.7320    0.2621    0.0000 C.ar    1  UNL1        0.2108
     19 C           7.2641    1.2829    0.0000 C.ar    1  UNL1        0.0288
     20 C           8.1244   -1.2621    0.0000 C.ar    1  UNL1       -0.0054
     21 C           8.9962    0.2346    0.0000 C.ar    1  UNL1       -0.0054
     22 C           9.8602   -0.2688    0.0000 C.ar    1  UNL1        0.1658
     23 C           8.9884   -1.7654    0.0000 C.ar    1  UNL1        0.1658
     24 C           9.8564   -1.2688    0.0000 C.ar    1  UNL1        0.2035
     25 C           3.7320    3.2621    0.0000 C.3     1  UNL1        0.0790
     26 C           2.0000    1.2621    0.0000 C.3     1  UNL1        0.0791
     27 C           2.8660   -1.2379    0.0000 C.3     1  UNL1        0.0791
     28 C          10.7320    1.2279    0.0000 C.3     1  UNL1        0.0790
     29 C           8.1166   -3.2621    0.0000 C.3     1  UNL1        0.0790
     30 C          11.5884   -1.2754    0.0000 C.3     1  UNL1        0.0791
     31 H           7.7998    1.5950    0.0000 H       1  UNL1        0.0693
     32 H           7.5862   -1.5700    0.0000 H       1  UNL1        0.0662
     33 H           8.9985    0.8546    0.0000 H       1  UNL1        0.0662
     34 H           4.0611   -1.5479    0.0000 H       1  UNL1        0.2924
     35 H           4.0420    3.7990    0.0000 H       1  UNL1        0.0660
     36 H           3.1951    3.5721    0.0000 H       1  UNL1        0.0660
     37 H           3.4220    2.7251    0.0000 H       1  UNL1        0.0660
     38 H           1.6900    1.7990    0.0000 H       1  UNL1        0.0660
     39 H           1.4631    0.9521    0.0000 H       1  UNL1        0.0660
     40 H           2.3100    0.7251    0.0000 H       1  UNL1        0.0660
     41 H           2.2460   -1.2379    0.0000 H       1  UNL1        0.0660
     42 H           2.8660   -1.8579    0.0000 H       1  UNL1        0.0660
     43 H           3.4860   -1.2379    0.0000 H       1  UNL1        0.0660
     44 H          11.3520    1.2255    0.0000 H       1  UNL1        0.0660
     45 H          10.7344    1.8479    0.0000 H       1  UNL1        0.0660
     46 H          10.1120    1.2303    0.0000 H       1  UNL1        0.0660
     47 H           7.8087   -2.7239    0.0000 H       1  UNL1        0.0660
     48 H           7.5785   -3.5700    0.0000 H       1  UNL1        0.0660
     49 H           8.4246   -3.8002    0.0000 H       1  UNL1        0.0660
     50 H          11.8964   -1.8136    0.0000 H       1  UNL1        0.0660
     51 H          12.1266   -0.9675    0.0000 H       1  UNL1        0.0660
     52 H          11.2805   -0.7373    0.0000 H       1  UNL1        0.0660
@<TRIPOS>BOND
     1     1    11   ar
     2     1    12   ar
     3     2    13    1
     4     2    25    1
     5     3    17    1
     6     3    26    1
     7     4    18    1
     8     4    27    1
     9     5    15    1
    10     5    34    1
    11     6    16    2
    12     7    22    1
    13     7    28    1
    14     8    23    1
    15     8    29    1
    16     9    24    1
    17     9    30    1
    18    10    11   ar
    19    10    13   ar
    20    10    16   ar
    21    11    15   ar
    22    12    14    1
    23    12    19   ar
    24    13    17   ar
    25    14    20   ar
    26    14    21   ar
    27    15    18   ar
    28    16    19   ar
    29    17    18   ar
    30    19    31    1
    31    20    23   ar
    32    20    32    1
    33    21    22   ar
    34    21    33    1
    35    22    24   ar
    36    23    24   ar
    37    25    35    1
    38    25    36    1
    39    25    37    1
    40    26    38    1
    41    26    39    1
    42    26    40    1
    43    27    41    1
    44    27    42    1
    45    27    43    1
    46    28    44    1
    47    28    45    1
    48    28    46    1
    49    29    47    1
    50    29    48    1
    51    29    49    1
    52    30    50    1
    53    30    51    1
    54    30    52    1
