@<TRIPOS>MOLECULE
IMPHY012697
 102 107 0 0 0
SMALL
GASTEIGER

@<TRIPOS>ATOM
      1 O           6.8671   -3.1941    0.0000 O.3     1  UNL1       -0.3449
      2 O           9.6611    3.8844    0.0000 O.3     1  UNL1       -0.3906
      3 O           8.6209    6.0853    0.0000 O.3     1  UNL1       -0.4802
      4 O           9.6152    5.2704    0.0000 O.2     1  UNL1       -0.2503
      5 O           5.1350   -3.1941    0.0000 O.3     1  UNL1       -0.3315
      6 O           6.8671   -5.1941    0.0000 O.3     1  UNL1       -0.3841
      7 O           5.1350   -6.1941    0.0000 O.3     1  UNL1       -0.3864
      8 O           3.4030   -5.1941    0.0000 O.3     1  UNL1       -0.3860
      9 O           2.5369   -3.6941    0.0000 O.3     1  UNL1       -0.4788
     10 O           3.4030   -2.1941    0.0000 O.2     1  UNL1       -0.2480
     11 C           7.7681    1.5061    0.0000 C.3     1  UNL1       -0.0193
     12 C           6.9040    1.0028    0.0000 C.3     1  UNL1       -0.0257
     13 C           6.8920   -0.0388    0.0000 C.3     1  UNL1       -0.0250
     14 C           7.7643    2.5061    0.0000 C.3     1  UNL1       -0.0028
     15 C           7.7920   -0.5631    0.0000 C.3     1  UNL1       -0.0278
     16 C           8.6801    1.0028    0.0000 C.3     1  UNL1       -0.0463
     17 C           8.6921   -0.0388    0.0000 C.3     1  UNL1       -0.0486
     18 C           7.8046   -1.6480    0.0000 C.3     1  UNL1       -0.0052
     19 C           6.8963    3.0027    0.0000 C.2     1  UNL1       -0.0627
     20 C           6.8762    4.0442    0.0000 C.3     1  UNL1       -0.0007
     21 C           6.0361    1.4994    0.0000 C.3     1  UNL1       -0.0306
     22 C           5.9421   -0.5631    0.0000 C.3     1  UNL1       -0.0447
     23 C           8.6723    3.0164    0.0000 C.3     1  UNL1       -0.0162
     24 C           7.7722    4.5754    0.0000 C.3     1  UNL1        0.0998
     25 C           8.6763    4.0580    0.0000 C.3     1  UNL1        0.0723
     26 C           8.7522    1.6835    0.0000 C.3     1  UNL1       -0.0585
     27 C           6.8671   -2.1941    0.0000 C.3     1  UNL1        0.0672
     28 C           6.0322    2.4994    0.0000 C.2     1  UNL1       -0.0836
     29 C           6.0279    0.4645    0.0000 C.3     1  UNL1       -0.0590
     30 C           5.9295   -1.6480    0.0000 C.3     1  UNL1       -0.0255
     31 C           8.7497    2.3362    0.0000 C.3     1  UNL1       -0.0552
     32 C           5.9223    4.5611    0.0000 C.3     1  UNL1       -0.0402
     33 C           7.7764    5.6604    0.0000 C.3     1  UNL1       -0.0338
     34 C           5.9014    5.6459    0.0000 C.3     1  UNL1       -0.0343
     35 C           8.8046   -1.6403    0.0000 C.3     1  UNL1       -0.0572
     36 C           8.3113   -2.5102    0.0000 C.3     1  UNL1       -0.0572
     37 C           6.8347    6.1992    0.0000 C.3     1  UNL1       -0.0467
     38 C           8.6324    5.0854    0.0000 C.2     1  UNL1        0.3140
     39 C           5.3881    6.5041    0.0000 C.3     1  UNL1       -0.0598
     40 C           4.9015    5.6305    0.0000 C.3     1  UNL1       -0.0598
     41 C           6.0010   -3.6941    0.0000 C.3     1  UNL1        0.1888
     42 C           6.0010   -4.6941    0.0000 C.3     1  UNL1        0.1341
     43 C           5.1350   -5.1941    0.0000 C.3     1  UNL1        0.1145
     44 C           4.2690   -3.6941    0.0000 C.3     1  UNL1        0.1859
     45 C           4.2690   -4.6941    0.0000 C.3     1  UNL1        0.1201
     46 C           3.4030   -3.1941    0.0000 C.2     1  UNL1        0.3367
     47 H           7.4398    0.6907    0.0000 H       1  UNL1        0.0315
     48 H           8.3314   -0.8689    0.0000 H       1  UNL1        0.0312
     49 H           9.2921    0.9037    0.0000 H       1  UNL1        0.0271
     50 H           8.8824    1.5888    0.0000 H       1  UNL1        0.0271
     51 H           8.9079   -0.6200    0.0000 H       1  UNL1        0.0268
     52 H           9.3017    0.0743    0.0000 H       1  UNL1        0.0268
     53 H           6.3466    3.7218    0.0000 H       1  UNL1        0.0357
     54 H           5.4251    1.6047    0.0000 H       1  UNL1        0.0310
     55 H           5.8263    0.9160    0.0000 H       1  UNL1        0.0310
     56 H           5.7398    0.0230    0.0000 H       1  UNL1        0.0271
     57 H           5.3300   -0.6621    0.0000 H       1  UNL1        0.0271
     58 H           8.8791    2.4319    0.0000 H       1  UNL1        0.0299
     59 H           9.2836    3.1202    0.0000 H       1  UNL1        0.0299
     60 H           8.8872    4.6411    0.0000 H       1  UNL1        0.0605
     61 H           8.8623    1.0734    0.0000 H       1  UNL1        0.0235
     62 H           9.3624    1.7936    0.0000 H       1  UNL1        0.0235
     63 H           8.6422    2.2937    0.0000 H       1  UNL1        0.0235
     64 H           7.4046   -2.5031    0.0000 H       1  UNL1        0.0602
     65 H           5.4941    2.8073    0.0000 H       1  UNL1        0.0572
     66 H           6.3400    1.0003    0.0000 H       1  UNL1        0.0235
     67 H           5.4922    0.7766    0.0000 H       1  UNL1        0.0235
     68 H           5.7158   -0.0712    0.0000 H       1  UNL1        0.0235
     69 H           5.3199   -1.5349    0.0000 H       1  UNL1        0.0290
     70 H           5.7137   -2.2292    0.0000 H       1  UNL1        0.0290
     71 H           8.6444    1.7252    0.0000 H       1  UNL1        0.0238
     72 H           9.3607    2.2309    0.0000 H       1  UNL1        0.0238
     73 H           8.8550    2.9472    0.0000 H       1  UNL1        0.0238
     74 H           5.3095    4.6554    0.0000 H       1  UNL1        0.0276
     75 H           5.7246    3.9735    0.0000 H       1  UNL1        0.0276
     76 H           8.3869    5.5519    0.0000 H       1  UNL1        0.0277
     77 H           7.9877    6.2433    0.0000 H       1  UNL1        0.0277
     78 H           8.8094   -2.2603    0.0000 H       1  UNL1        0.0236
     79 H           9.4246   -1.6355    0.0000 H       1  UNL1        0.0236
     80 H           8.7998   -1.0203    0.0000 H       1  UNL1        0.0236
     81 H           7.7767   -2.8243    0.0000 H       1  UNL1        0.0236
     82 H           8.6254   -3.0447    0.0000 H       1  UNL1        0.0236
     83 H           8.8458   -2.1960    0.0000 H       1  UNL1        0.0236
     84 H           7.2302    6.6767    0.0000 H       1  UNL1        0.0271
     85 H           6.4319    6.6706    0.0000 H       1  UNL1        0.0271
     86 H           9.8732    3.3018    0.0000 H       1  UNL1        0.2098
     87 H           5.9202    6.8224    0.0000 H       1  UNL1        0.0235
     88 H           5.0699    7.0362    0.0000 H       1  UNL1        0.0235
     89 H           4.8560    6.1859    0.0000 H       1  UNL1        0.0235
     90 H           4.8920    6.2504    0.0000 H       1  UNL1        0.0235
     91 H           4.2816    5.6209    0.0000 H       1  UNL1        0.0235
     92 H           4.9111    5.0106    0.0000 H       1  UNL1        0.0235
     93 H           6.0010   -3.0741    0.0000 H       1  UNL1        0.0938
     94 H           9.1542    6.4015    0.0000 H       1  UNL1        0.2951
     95 H           6.0010   -5.3141    0.0000 H       1  UNL1        0.0671
     96 H           4.5981   -5.5041    0.0000 H       1  UNL1        0.0648
     97 H           4.2690   -3.0741    0.0000 H       1  UNL1        0.0741
     98 H           3.7320   -4.3841    0.0000 H       1  UNL1        0.0652
     99 H           7.4040   -4.8841    0.0000 H       1  UNL1        0.2101
    100 H           5.6720   -6.5041    0.0000 H       1  UNL1        0.2100
    101 H           3.4030   -5.8141    0.0000 H       1  UNL1        0.2100
    102 H           2.0000   -3.3841    0.0000 H       1  UNL1        0.2951
@<TRIPOS>BOND
     1     1    27    1
     2     1    41    1
     3     2    25    1
     4     2    86    1
     5     3    38    1
     6     3    94    1
     7     4    38    2
     8     5    41    1
     9     5    44    1
    10     6    42    1
    11     6    99    1
    12     7    43    1
    13     7   100    1
    14     8    45    1
    15     8   101    1
    16     9    46    1
    17     9   102    1
    18    10    46    2
    19    11    12    1
    20    11    14    1
    21    11    16    1
    22    11    26    1
    23    12    13    1
    24    12    21    1
    25    12    47    1
    26    13    15    1
    27    13    22    1
    28    13    29    1
    29    14    19    1
    30    14    23    1
    31    14    31    1
    32    15    17    1
    33    15    18    1
    34    15    48    1
    35    16    17    1
    36    16    49    1
    37    16    50    1
    38    17    51    1
    39    17    52    1
    40    18    27    1
    41    18    35    1
    42    18    36    1
    43    19    20    1
    44    19    28    2
    45    20    24    1
    46    20    32    1
    47    20    53    1
    48    21    28    1
    49    21    54    1
    50    21    55    1
    51    22    30    1
    52    22    56    1
    53    22    57    1
    54    23    25    1
    55    23    58    1
    56    23    59    1
    57    24    25    1
    58    24    33    1
    59    24    38    1
    60    25    60    1
    61    26    61    1
    62    26    62    1
    63    26    63    1
    64    27    30    1
    65    27    64    1
    66    28    65    1
    67    29    66    1
    68    29    67    1
    69    29    68    1
    70    30    69    1
    71    30    70    1
    72    31    71    1
    73    31    72    1
    74    31    73    1
    75    32    34    1
    76    32    74    1
    77    32    75    1
    78    33    37    1
    79    33    76    1
    80    33    77    1
    81    34    37    1
    82    34    39    1
    83    34    40    1
    84    35    78    1
    85    35    79    1
    86    35    80    1
    87    36    81    1
    88    36    82    1
    89    36    83    1
    90    37    84    1
    91    37    85    1
    92    39    87    1
    93    39    88    1
    94    39    89    1
    95    40    90    1
    96    40    91    1
    97    40    92    1
    98    41    42    1
    99    41    93    1
   100    42    43    1
   101    42    95    1
   102    43    45    1
   103    43    96    1
   104    44    45    1
   105    44    46    1
   106    44    97    1
   107    45    98    1
