@<TRIPOS>MOLECULE
IMPHY012051
 42 45 0 0 0
SMALL
GASTEIGER

@<TRIPOS>ATOM
      1 O           9.1857    2.1767    0.0000 O.2     1  UNL1       -0.2968
      2 O           2.5357   -2.1309    0.0000 O.3     1  UNL1       -0.5068
      3 C           7.9288   -0.0785    0.0000 C.3     1  UNL1       -0.0252
      4 C           7.9288    0.9215    0.0000 C.3     1  UNL1        0.0293
      5 C           7.0628   -0.5785    0.0000 C.3     1  UNL1       -0.0302
      6 C           6.1968   -0.0785    0.0000 C.3     1  UNL1       -0.0124
      7 C           7.0628    1.4215    0.0000 C.3     1  UNL1       -0.0401
      8 C           8.8750   -0.3833    0.0000 C.3     1  UNL1       -0.0424
      9 C           6.1968    0.9215    0.0000 C.3     1  UNL1       -0.0450
     10 C           7.0789   -1.6200    0.0000 C.3     1  UNL1       -0.0454
     11 C           8.8750    1.2262    0.0000 C.2     1  UNL1        0.1395
     12 C           9.4586    0.4215    0.0000 C.3     1  UNL1        0.0067
     13 C           7.9288    1.9215    0.0000 C.3     1  UNL1       -0.0526
     14 C           5.2868   -0.5854    0.0000 C.ar    1  UNL1       -0.0406
     15 C           6.1808   -2.1478    0.0000 C.3     1  UNL1       -0.0270
     16 C           5.2787   -1.6270    0.0000 C.ar    1  UNL1       -0.0405
     17 C           4.3599   -0.0213    0.0000 C.ar    1  UNL1       -0.0546
     18 C           4.3433   -2.1767    0.0000 C.ar    1  UNL1       -0.0167
     19 C           3.4120   -0.5493    0.0000 C.ar    1  UNL1       -0.0199
     20 C           3.4037   -1.6342    0.0000 C.ar    1  UNL1        0.1171
     21 H           8.0188   -0.9238    0.0000 H       1  UNL1        0.0313
     22 H           7.8022   -0.9979    0.0000 H       1  UNL1        0.0310
     23 H           6.9329    0.3465    0.0000 H       1  UNL1        0.0352
     24 H           7.4613    1.8964    0.0000 H       1  UNL1        0.0275
     25 H           6.6643    1.8964    0.0000 H       1  UNL1        0.0275
     26 H           8.6240   -0.9502    0.0000 H       1  UNL1        0.0272
     27 H           9.4124   -0.6925    0.0000 H       1  UNL1        0.0272
     28 H           5.9847    1.5041    0.0000 H       1  UNL1        0.0271
     29 H           5.5862    0.8138    0.0000 H       1  UNL1        0.0271
     30 H           7.2969   -2.2004    0.0000 H       1  UNL1        0.0271
     31 H           7.6880   -1.5046    0.0000 H       1  UNL1        0.0271
     32 H           9.9195    0.0067    0.0000 H       1  UNL1        0.0342
     33 H           9.9195    0.8362    0.0000 H       1  UNL1        0.0342
     34 H           8.5488    1.9215    0.0000 H       1  UNL1        0.0239
     35 H           7.9288    2.5415    0.0000 H       1  UNL1        0.0239
     36 H           7.3088    1.9215    0.0000 H       1  UNL1        0.0239
     37 H           5.7835   -2.6238    0.0000 H       1  UNL1        0.0313
     38 H           6.5818   -2.6207    0.0000 H       1  UNL1        0.0313
     39 H           4.3719    0.5986    0.0000 H       1  UNL1        0.0622
     40 H           4.3457   -2.7967    0.0000 H       1  UNL1        0.0657
     41 H           2.8787   -0.2331    0.0000 H       1  UNL1        0.0654
     42 H           2.0000   -1.8188    0.0000 H       1  UNL1        0.2921
@<TRIPOS>BOND
     1     1    11    2
     2     2    20    1
     3     2    42    1
     4     3     4    1
     5     3     5    1
     6     3     8    1
     7     3    21    1
     8     4     7    1
     9     4    11    1
    10     4    13    1
    11     5     6    1
    12     5    10    1
    13     5    22    1
    14     6     9    1
    15     6    14    1
    16     6    23    1
    17     7     9    1
    18     7    24    1
    19     7    25    1
    20     8    12    1
    21     8    26    1
    22     8    27    1
    23     9    28    1
    24     9    29    1
    25    10    15    1
    26    10    30    1
    27    10    31    1
    28    11    12    1
    29    12    32    1
    30    12    33    1
    31    13    34    1
    32    13    35    1
    33    13    36    1
    34    14    16   ar
    35    14    17   ar
    36    15    16    1
    37    15    37    1
    38    15    38    1
    39    16    18   ar
    40    17    19   ar
    41    17    39    1
    42    18    20   ar
    43    18    40    1
    44    19    20   ar
    45    19    41    1
