@<TRIPOS>MOLECULE
IMPHY002517
 50 52 0 0 0
SMALL
GASTEIGER

@<TRIPOS>ATOM
      1 O           9.5984    0.1723    0.0000 O.3     1  UNL1       -0.4946
      2 O           4.3198    1.1827    0.0000 O.3     1  UNL1       -0.4895
      3 O           7.8167   -2.8864    0.0000 O.3     1  UNL1       -0.5059
      4 O           6.0682   -2.8519    0.0000 O.2     1  UNL1       -0.2864
      5 O           2.5381    0.1723    0.0000 O.3     1  UNL1       -0.5032
      6 N           6.0682    0.1481    0.0000 N.ar    1  UNL1       -0.3394
      7 C           6.9343   -0.3519    0.0000 C.ar    1  UNL1        0.0636
      8 C           6.9343   -1.3518    0.0000 C.ar    1  UNL1        0.0876
      9 C           7.8282    0.1828    0.0000 C.ar    1  UNL1        0.0224
     10 C           5.2022   -0.3519    0.0000 C.ar    1  UNL1        0.0988
     11 C           5.2022   -1.3518    0.0000 C.ar    1  UNL1        0.0497
     12 C           6.0682   -1.8518    0.0000 C.ar    1  UNL1        0.2007
     13 C           7.8167    1.1827    0.0000 C.3     1  UNL1       -0.0038
     14 C           8.7343   -0.3310    0.0000 C.ar    1  UNL1        0.1290
     15 C           7.8282   -1.8865    0.0000 C.ar    1  UNL1        0.1331
     16 C           4.3083    0.1828    0.0000 C.ar    1  UNL1        0.1855
     17 C           6.0682    1.1482    0.0000 C.3     1  UNL1        0.0125
     18 C           8.7343   -1.3727    0.0000 C.ar    1  UNL1        0.0227
     19 C           4.3083   -1.8865    0.0000 C.ar    1  UNL1       -0.0452
     20 C           3.4022   -0.3310    0.0000 C.ar    1  UNL1        0.1606
     21 C           8.6768    1.6927    0.0000 C.2     1  UNL1       -0.0808
     22 C           3.4022   -1.3727    0.0000 C.ar    1  UNL1       -0.0157
     23 C           8.6653    2.6927    0.0000 C.2     1  UNL1       -0.0793
     24 C          10.4663   -0.3244    0.0000 C.3     1  UNL1        0.0788
     25 C           9.5255    3.2026    0.0000 C.3     1  UNL1       -0.0440
     26 C           7.7935    3.1826    0.0000 C.3     1  UNL1       -0.0440
     27 C           3.4597    1.6927    0.0000 C.3     1  UNL1        0.0791
     28 H           7.5979    1.7629    0.0000 H       1  UNL1        0.0357
     29 H           7.2074    1.0680    0.0000 H       1  UNL1        0.0357
     30 H           6.6882    1.1482    0.0000 H       1  UNL1        0.0456
     31 H           6.0682    1.7682    0.0000 H       1  UNL1        0.0456
     32 H           5.4482    1.1482    0.0000 H       1  UNL1        0.0456
     33 H           9.2700   -1.6847    0.0000 H       1  UNL1        0.0691
     34 H           4.3154   -2.5065    0.0000 H       1  UNL1        0.0626
     35 H           9.2173    1.3889    0.0000 H       1  UNL1        0.0575
     36 H           2.8665   -1.6847    0.0000 H       1  UNL1        0.0655
     37 H           8.3500   -3.2026    0.0000 H       1  UNL1        0.2922
     38 H          10.1584   -0.8625    0.0000 H       1  UNL1        0.0660
     39 H          11.0045   -0.6323    0.0000 H       1  UNL1        0.0660
     40 H          10.7743    0.2138    0.0000 H       1  UNL1        0.0660
     41 H           9.8416    2.6693    0.0000 H       1  UNL1        0.0274
     42 H           8.0973    3.7231    0.0000 H       1  UNL1        0.0274
     43 H           7.2530    3.4864    0.0000 H       1  UNL1        0.0274
     44 H           7.4898    2.6421    0.0000 H       1  UNL1        0.0274
     45 H          10.0588    3.5188    0.0000 H       1  UNL1        0.0274
     46 H           9.2093    3.7360    0.0000 H       1  UNL1        0.0274
     47 H           2.0000   -0.1356    0.0000 H       1  UNL1        0.2923
     48 H           3.7758    2.2260    0.0000 H       1  UNL1        0.0660
     49 H           2.9263    2.0089    0.0000 H       1  UNL1        0.0660
     50 H           3.1435    1.1594    0.0000 H       1  UNL1        0.0660
@<TRIPOS>BOND
     1     1    14    1
     2     1    24    1
     3     2    16    1
     4     2    27    1
     5     3    15    1
     6     3    37    1
     7     4    12    2
     8     5    20    1
     9     5    47    1
    10     6     7   ar
    11     6    10   ar
    12     6    17    1
    13     7     8   ar
    14     7     9   ar
    15     8    12   ar
    16     8    15   ar
    17     9    13    1
    18     9    14   ar
    19    10    11   ar
    20    10    16   ar
    21    11    12   ar
    22    11    19   ar
    23    13    21    1
    24    13    28    1
    25    13    29    1
    26    14    18   ar
    27    15    18   ar
    28    16    20   ar
    29    17    30    1
    30    17    31    1
    31    17    32    1
    32    18    33    1
    33    19    22   ar
    34    19    34    1
    35    20    22   ar
    36    21    23    2
    37    21    35    1
    38    22    36    1
    39    23    25    1
    40    23    26    1
    41    24    38    1
    42    24    39    1
    43    24    40    1
    44    25    41    1
    45    25    45    1
    46    25    46    1
    47    26    42    1
    48    26    43    1
    49    26    44    1
    50    27    48    1
    51    27    49    1
    52    27    50    1
