@<TRIPOS>MOLECULE
IMPHY009683
 16 16 0 0 0
SMALL
GASTEIGER

@<TRIPOS>ATOM
      1 S           2.8660   -1.0000    0.0000 S.3     1  UNL1       -0.1380
      2 S           3.7320    0.5000    0.0000 S.3     1  UNL1       -0.1150
      3 C           3.7320   -0.5000    0.0000 C.3     1  UNL1        0.0730
      4 C           2.0000   -0.5000    0.0000 C.3     1  UNL1        0.0139
      5 C           2.0000    0.5000    0.0000 C.2     1  UNL1       -0.0679
      6 C           2.8660    1.0000    0.0000 C.2     1  UNL1       -0.0304
      7 C           4.5981   -1.0000    0.0000 C.2     1  UNL1       -0.0682
      8 C           5.4641   -0.5000    0.0000 C.2     1  UNL1       -0.1008
      9 H           3.7320   -1.1200    0.0000 H       1  UNL1        0.0572
     10 H           1.3894   -0.3923    0.0000 H       1  UNL1        0.0420
     11 H           1.7880   -1.0826    0.0000 H       1  UNL1        0.0420
     12 H           1.4631    0.8100    0.0000 H       1  UNL1        0.0585
     13 H           4.5981   -1.6200    0.0000 H       1  UNL1        0.0585
     14 H           2.8660    1.6200    0.0000 H       1  UNL1        0.0687
     15 H           6.0010   -0.8100    0.0000 H       1  UNL1        0.0532
     16 H           5.4641    0.1200    0.0000 H       1  UNL1        0.0532
@<TRIPOS>BOND
     1     1     3    1
     2     1     4    1
     3     2     3    1
     4     2     6    1
     5     3     7    1
     6     3     9    1
     7     4     5    1
     8     4    10    1
     9     4    11    1
    10     5     6    2
    11     5    12    1
    12     6    14    1
    13     7     8    2
    14     7    13    1
    15     8    15    1
    16     8    16    1
