@<TRIPOS>MOLECULE
IMPHY011427
 55 57 0 0 0
SMALL
GASTEIGER

@<TRIPOS>ATOM
      1 O           7.7331   -0.5000    0.0000 O.3     1  UNL1       -0.3405
      2 O           6.0010    0.5000    0.0000 O.3     1  UNL1       -0.3461
      3 O           4.2690    0.5000    0.0000 O.3     1  UNL1       -0.3461
      4 O           6.0010   -2.5000    0.0000 O.3     1  UNL1       -0.3865
      5 O           9.4651   -0.5000    0.0000 O.3     1  UNL1       -0.3262
      6 O           7.7331   -3.5000    0.0000 O.3     1  UNL1       -0.3864
      7 O           9.4651   -2.5000    0.0000 O.3     1  UNL1       -0.3841
      8 O           6.0010    2.5000    0.0000 O.3     1  UNL1       -0.3841
      9 O           4.2690    3.5000    0.0000 O.3     1  UNL1       -0.3864
     10 O           2.5369    2.5000    0.0000 O.3     1  UNL1       -0.3869
     11 N           7.7331    1.5000    0.0000 N.1     1  UNL1       -0.1935
     12 C           6.8671   -1.0000    0.0000 C.3     1  UNL1        0.1134
     13 C           6.8671   -2.0000    0.0000 C.3     1  UNL1        0.1119
     14 C           7.7331   -2.5000    0.0000 C.3     1  UNL1        0.1141
     15 C           8.5991   -2.0000    0.0000 C.3     1  UNL1        0.1342
     16 C           8.5991   -1.0000    0.0000 C.3     1  UNL1        0.1899
     17 C           6.0010   -0.5000    0.0000 C.3     1  UNL1        0.0796
     18 C           5.1350    1.0000    0.0000 C.3     1  UNL1        0.1876
     19 C           5.1350    2.0000    0.0000 C.3     1  UNL1        0.1341
     20 C           4.2690    2.5000    0.0000 C.3     1  UNL1        0.1137
     21 C           3.4030    2.0000    0.0000 C.3     1  UNL1        0.1069
     22 C           3.4030    1.0000    0.0000 C.3     1  UNL1        0.0792
     23 C           9.4651    0.5000    0.0000 C.3     1  UNL1        0.1722
     24 C          10.3312    1.0000    0.0000 C.ar    1  UNL1       -0.0049
     25 C           8.5991    1.0000    0.0000 C.1     1  UNL1        0.0992
     26 C          11.1972    0.5000    0.0000 C.ar    1  UNL1       -0.0551
     27 C          10.3312    2.0000    0.0000 C.ar    1  UNL1       -0.0551
     28 C          12.0632    1.0000    0.0000 C.ar    1  UNL1       -0.0614
     29 C          11.1972    2.5000    0.0000 C.ar    1  UNL1       -0.0614
     30 C          12.0632    2.0000    0.0000 C.ar    1  UNL1       -0.0617
     31 H           6.8671   -0.3800    0.0000 H       1  UNL1        0.0647
     32 H           6.8671   -2.6200    0.0000 H       1  UNL1        0.0647
     33 H           8.2700   -2.8100    0.0000 H       1  UNL1        0.0648
     34 H           9.1360   -1.6900    0.0000 H       1  UNL1        0.0671
     35 H           8.5991   -0.3800    0.0000 H       1  UNL1        0.0938
     36 H           5.3905   -0.3923    0.0000 H       1  UNL1        0.0587
     37 H           5.7890   -1.0826    0.0000 H       1  UNL1        0.0587
     38 H           5.6720    1.3100    0.0000 H       1  UNL1        0.0937
     39 H           5.1350    2.6200    0.0000 H       1  UNL1        0.0671
     40 H           3.7320    2.8100    0.0000 H       1  UNL1        0.0647
     41 H           3.9650    2.6200    0.0000 H       1  UNL1        0.0643
     42 H           2.7924    1.1077    0.0000 H       1  UNL1        0.0587
     43 H           3.1909    0.4174    0.0000 H       1  UNL1        0.0587
     44 H           5.4641   -2.1900    0.0000 H       1  UNL1        0.2100
     45 H           7.1962   -3.8100    0.0000 H       1  UNL1        0.2100
     46 H          10.0021   -2.1900    0.0000 H       1  UNL1        0.2101
     47 H          10.0021    0.1900    0.0000 H       1  UNL1        0.0808
     48 H           6.0010    3.1200    0.0000 H       1  UNL1        0.2101
     49 H           3.7320    3.8100    0.0000 H       1  UNL1        0.2100
     50 H           2.0000    2.1900    0.0000 H       1  UNL1        0.2100
     51 H          11.1972   -0.1200    0.0000 H       1  UNL1        0.0621
     52 H           9.7942    2.3100    0.0000 H       1  UNL1        0.0621
     53 H          12.6002    0.6900    0.0000 H       1  UNL1        0.0618
     54 H          11.1972    3.1200    0.0000 H       1  UNL1        0.0618
     55 H          12.6002    2.3100    0.0000 H       1  UNL1        0.0618
@<TRIPOS>BOND
     1     1    12    1
     2     1    16    1
     3     2    17    1
     4    18     2    1
     5     3    18    1
     6     3    22    1
     7    13     4    1
     8     4    44    1
     9    16     5    1
    10    23     5    1
    11    14     6    1
    12     6    45    1
    13    15     7    1
    14     7    46    1
    15    19     8    1
    16     8    48    1
    17    20     9    1
    18     9    49    1
    19    21    10    1
    20    10    50    1
    21    11    25    3
    22    12    13    1
    23    12    17    1
    24    12    31    1
    25    13    14    1
    26    13    32    1
    27    14    15    1
    28    14    33    1
    29    15    16    1
    30    15    34    1
    31    16    35    1
    32    17    36    1
    33    17    37    1
    34    18    19    1
    35    18    38    1
    36    19    20    1
    37    19    39    1
    38    20    21    1
    39    20    40    1
    40    21    22    1
    41    21    41    1
    42    22    42    1
    43    22    43    1
    44    23    24    1
    45    23    25    1
    46    23    47    1
    47    24    26   ar
    48    24    27   ar
    49    26    28   ar
    50    26    51    1
    51    27    29   ar
    52    27    52    1
    53    28    30   ar
    54    28    53    1
    55    29    30   ar
    56    29    54    1
    57    30    55    1
