@<TRIPOS>MOLECULE
IMPHY003066
 43 47 0 0 0
SMALL
GASTEIGER

@<TRIPOS>ATOM
      1 O           3.5637   -1.2364    0.0000 O.3     1  UNL1       -0.4523
      2 O           8.0122   -1.5443    0.0000 O.2     1  UNL1       -0.2918
      3 O           3.5637   -2.8459    0.0000 O.3     1  UNL1       -0.4526
      4 O           3.3844    2.9495    0.0000 O.3     1  UNL1       -0.4526
      5 O           2.0000    2.1287    0.0000 O.3     1  UNL1       -0.4526
      6 C           6.2580    0.5281    0.0000 C.3     1  UNL1       -0.0233
      7 C           5.3599    0.0004    0.0000 C.3     1  UNL1        0.0168
      8 C           7.1600    0.0073    0.0000 C.3     1  UNL1        0.0227
      9 C           5.3760   -1.0412    0.0000 C.ar    1  UNL1        0.0162
     10 C           6.2420   -1.5412    0.0000 C.ar    1  UNL1        0.0251
     11 C           7.1520   -1.0343    0.0000 C.2     1  UNL1        0.1666
     12 C           4.4882    0.4903    0.0000 C.ar    1  UNL1       -0.0359
     13 C           6.2541    1.5281    0.0000 C.3     1  UNL1       -0.0609
     14 C           8.0280    0.5040    0.0000 C.3     1  UNL1       -0.0551
     15 C           4.5100   -1.5412    0.0000 C.ar    1  UNL1        0.1706
     16 C           6.2420   -2.5412    0.0000 C.ar    1  UNL1       -0.0473
     17 C           4.5100   -2.5412    0.0000 C.ar    1  UNL1        0.1666
     18 C           4.4766    1.4902    0.0000 C.ar    1  UNL1       -0.0124
     19 C           3.6280   -0.0197    0.0000 C.ar    1  UNL1       -0.0543
     20 C           5.3760   -3.0412    0.0000 C.ar    1  UNL1       -0.0155
     21 C           3.6049    1.9802    0.0000 C.ar    1  UNL1        0.1665
     22 C           2.7562    0.4703    0.0000 C.ar    1  UNL1       -0.0159
     23 C           2.9801   -2.0412    0.0000 C.3     1  UNL1        0.2332
     24 C           2.7447    1.4702    0.0000 C.ar    1  UNL1        0.1662
     25 C           2.3946    3.0412    0.0000 C.3     1  UNL1        0.2332
     26 H           5.7192    0.8350    0.0000 H       1  UNL1        0.0314
     27 H           5.3540    0.6203    0.0000 H       1  UNL1        0.0401
     28 H           7.1612    0.6273    0.0000 H       1  UNL1        0.0381
     29 H           6.8741    1.5305    0.0000 H       1  UNL1        0.0233
     30 H           6.2517    2.1481    0.0000 H       1  UNL1        0.0233
     31 H           5.6341    1.5257    0.0000 H       1  UNL1        0.0233
     32 H           8.3359   -0.0342    0.0000 H       1  UNL1        0.0237
     33 H           8.5661    0.8119    0.0000 H       1  UNL1        0.0237
     34 H           7.7201    1.0421    0.0000 H       1  UNL1        0.0237
     35 H           6.7790   -2.8512    0.0000 H       1  UNL1        0.0626
     36 H           5.0099    1.8064    0.0000 H       1  UNL1        0.0658
     37 H           3.6352   -0.6396    0.0000 H       1  UNL1        0.0622
     38 H           5.3760   -3.6612    0.0000 H       1  UNL1        0.0655
     39 H           2.2229    0.1541    0.0000 H       1  UNL1        0.0655
     40 H           2.5193   -1.6264    0.0000 H       1  UNL1        0.1166
     41 H           2.5193   -2.4559    0.0000 H       1  UNL1        0.1166
     42 H           2.5163    3.6491    0.0000 H       1  UNL1        0.1166
     43 H           1.8028    3.2261    0.0000 H       1  UNL1        0.1166
@<TRIPOS>BOND
     1     1    15    1
     2     1    23    1
     3     2    11    2
     4     3    17    1
     5     3    23    1
     6     4    21    1
     7     4    25    1
     8     5    24    1
     9     5    25    1
    10     6     7    1
    11     6     8    1
    12     6    13    1
    13     6    26    1
    14     7     9    1
    15     7    12    1
    16     7    27    1
    17     8    11    1
    18     8    14    1
    19     8    28    1
    20     9    10   ar
    21     9    15   ar
    22    10    11    1
    23    10    16   ar
    24    12    18   ar
    25    12    19   ar
    26    13    29    1
    27    13    30    1
    28    13    31    1
    29    14    32    1
    30    14    33    1
    31    14    34    1
    32    15    17   ar
    33    16    20   ar
    34    16    35    1
    35    17    20   ar
    36    18    21   ar
    37    18    36    1
    38    19    22   ar
    39    19    37    1
    40    20    38    1
    41    21    24   ar
    42    22    24   ar
    43    22    39    1
    44    23    40    1
    45    23    41    1
    46    25    42    1
    47    25    43    1
