@<TRIPOS>MOLECULE
IMPHY004724
 41 45 0 0 0
SMALL
GASTEIGER

@<TRIPOS>ATOM
      1 O           6.2719   -1.2287    0.0000 O.3     1  UNL1       -0.4803
      2 O           6.4811    1.7431    0.0000 O.3     1  UNL1       -0.4881
      3 O           4.7490    0.7431    0.0000 O.3     1  UNL1       -0.3765
      4 O           2.2123   -1.2454    0.0000 O.3     1  UNL1       -0.4526
      5 O           2.8914   -2.7673    0.0000 O.3     1  UNL1       -0.4525
      6 O          10.0112   -0.2810    0.0000 O.3     1  UNL1       -0.4914
      7 O          10.0112    1.7673    0.0000 O.3     1  UNL1       -0.4913
      8 C           5.6151    0.2431    0.0000 C.3     1  UNL1        0.1690
      9 C           6.4811   -0.2569    0.0000 C.3     1  UNL1        0.1646
     10 C           4.8780   -0.4240    0.0000 C.ar    1  UNL1        0.0364
     11 C           5.6151    1.2431    0.0000 C.3     1  UNL1        0.1263
     12 C           7.3471    0.2431    0.0000 C.ar    1  UNL1        0.0412
     13 C           5.2832   -1.3317    0.0000 C.ar    1  UNL1        0.1314
     14 C           7.3471    1.2431    0.0000 C.ar    1  UNL1        0.1311
     15 C           3.8499   -0.3007    0.0000 C.ar    1  UNL1       -0.0065
     16 C           4.6882   -2.1792    0.0000 C.ar    1  UNL1        0.0260
     17 C           8.2410   -0.2915    0.0000 C.ar    1  UNL1       -0.0060
     18 C           3.2356   -1.1343    0.0000 C.ar    1  UNL1        0.1668
     19 C           3.6576   -2.0798    0.0000 C.ar    1  UNL1        0.1697
     20 C           8.2410    1.7778    0.0000 C.ar    1  UNL1        0.0258
     21 C           9.1471    0.2223    0.0000 C.ar    1  UNL1        0.1621
     22 C           9.1471    1.2639    0.0000 C.ar    1  UNL1        0.1650
     23 C           2.0000   -2.2526    0.0000 C.3     1  UNL1        0.2332
     24 C          10.0074   -1.2810    0.0000 C.3     1  UNL1        0.0790
     25 C          10.0074    2.7673    0.0000 C.3     1  UNL1        0.0790
     26 H           6.9822   -0.6219    0.0000 H       1  UNL1        0.0820
     27 H           5.4030    1.8257    0.0000 H       1  UNL1        0.0730
     28 H           5.0045    1.1355    0.0000 H       1  UNL1        0.0730
     29 H           3.6038    0.2683    0.0000 H       1  UNL1        0.0660
     30 H           4.7490    1.3631    0.0000 H       1  UNL1        0.2109
     31 H           4.9474   -2.7425    0.0000 H       1  UNL1        0.0692
     32 H           8.2339   -0.9115    0.0000 H       1  UNL1        0.0660
     33 H           8.2339    2.3978    0.0000 H       1  UNL1        0.0692
     34 H           1.4101   -2.0617    0.0000 H       1  UNL1        0.1166
     35 H           1.7482   -2.8192    0.0000 H       1  UNL1        0.1166
     36 H           9.3874   -1.2786    0.0000 H       1  UNL1        0.0660
     37 H          10.0050   -1.9010    0.0000 H       1  UNL1        0.0660
     38 H          10.6273   -1.2834    0.0000 H       1  UNL1        0.0660
     39 H          10.6273    2.7697    0.0000 H       1  UNL1        0.0660
     40 H          10.0050    3.3873    0.0000 H       1  UNL1        0.0660
     41 H           9.3874    2.7649    0.0000 H       1  UNL1        0.0660
@<TRIPOS>BOND
     1     1     9    1
     2     1    13    1
     3     2    11    1
     4     2    14    1
     5     3     8    1
     6     3    30    1
     7     4    18    1
     8     4    23    1
     9     5    19    1
    10     5    23    1
    11     6    21    1
    12     6    24    1
    13     7    22    1
    14     7    25    1
    15     8     9    1
    16     8    10    1
    17     8    11    1
    18     9    12    1
    19     9    26    1
    20    10    13   ar
    21    10    15   ar
    22    11    27    1
    23    11    28    1
    24    12    14   ar
    25    12    17   ar
    26    13    16   ar
    27    14    20   ar
    28    15    18   ar
    29    15    29    1
    30    16    19   ar
    31    16    31    1
    32    17    21   ar
    33    17    32    1
    34    18    19   ar
    35    20    22   ar
    36    20    33    1
    37    21    22   ar
    38    23    34    1
    39    23    35    1
    40    24    36    1
    41    24    37    1
    42    24    38    1
    43    25    39    1
    44    25    40    1
    45    25    41    1
