@<TRIPOS>MOLECULE
IMPHY015634
 34 33 0 0 0
SMALL
GASTEIGER

@<TRIPOS>ATOM
      1 O          11.5263   -0.2500    0.0000 O.3     1  UNL1       -0.3910
      2 C           5.4641    0.2500    0.0000 C.3     1  UNL1       -0.0530
      3 C           4.5981   -0.2500    0.0000 C.3     1  UNL1       -0.0531
      4 C           6.3301   -0.2500    0.0000 C.3     1  UNL1       -0.0528
      5 C           3.7320    0.2500    0.0000 C.3     1  UNL1       -0.0533
      6 C           7.1962    0.2500    0.0000 C.3     1  UNL1       -0.0496
      7 C           2.8660   -0.2500    0.0000 C.3     1  UNL1       -0.0559
      8 C           8.0622   -0.2500    0.0000 C.3     1  UNL1       -0.0347
      9 C           2.0000    0.2500    0.0000 C.3     1  UNL1       -0.0653
     10 C           8.9282    0.2500    0.0000 C.2     1  UNL1       -0.0858
     11 C           9.7942   -0.2500    0.0000 C.2     1  UNL1       -0.0629
     12 C          10.6603    0.2500    0.0000 C.3     1  UNL1        0.0624
     13 H           5.8626    0.7249    0.0000 H       1  UNL1        0.0265
     14 H           5.0656    0.7249    0.0000 H       1  UNL1        0.0265
     15 H           4.1996   -0.7249    0.0000 H       1  UNL1        0.0265
     16 H           4.9966   -0.7249    0.0000 H       1  UNL1        0.0265
     17 H           5.9316   -0.7249    0.0000 H       1  UNL1        0.0265
     18 H           6.7287   -0.7249    0.0000 H       1  UNL1        0.0265
     19 H           4.1306    0.7249    0.0000 H       1  UNL1        0.0265
     20 H           3.3335    0.7249    0.0000 H       1  UNL1        0.0265
     21 H           7.5947    0.7249    0.0000 H       1  UNL1        0.0268
     22 H           6.7976    0.7249    0.0000 H       1  UNL1        0.0268
     23 H           2.4675   -0.7249    0.0000 H       1  UNL1        0.0263
     24 H           3.2646   -0.7249    0.0000 H       1  UNL1        0.0263
     25 H           7.6636   -0.7249    0.0000 H       1  UNL1        0.0307
     26 H           8.4607   -0.7249    0.0000 H       1  UNL1        0.0307
     27 H           2.3100    0.7869    0.0000 H       1  UNL1        0.0230
     28 H           1.4631    0.5600    0.0000 H       1  UNL1        0.0230
     29 H           1.6900   -0.2869    0.0000 H       1  UNL1        0.0230
     30 H           8.9282    0.8700    0.0000 H       1  UNL1        0.0570
     31 H           9.7942   -0.8700    0.0000 H       1  UNL1        0.0591
     32 H          11.0588    0.7249    0.0000 H       1  UNL1        0.0601
     33 H          10.2617    0.7249    0.0000 H       1  UNL1        0.0601
     34 H          12.0632    0.0600    0.0000 H       1  UNL1        0.2098
@<TRIPOS>BOND
     1     1    12    1
     2     1    34    1
     3     2     3    1
     4     2     4    1
     5     2    13    1
     6     2    14    1
     7     3     5    1
     8     3    15    1
     9     3    16    1
    10     4     6    1
    11     4    17    1
    12     4    18    1
    13     5     7    1
    14     5    19    1
    15     5    20    1
    16     6     8    1
    17     6    21    1
    18     6    22    1
    19     7     9    1
    20     7    23    1
    21     7    24    1
    22     8    10    1
    23     8    25    1
    24     8    26    1
    25     9    27    1
    26     9    28    1
    27     9    29    1
    28    10    11    2
    29    10    30    1
    30    11    12    1
    31    11    31    1
    32    12    32    1
    33    12    33    1
