@<TRIPOS>MOLECULE
IMPHY010488
 40 48 0 0 0
SMALL
GASTEIGER

@<TRIPOS>ATOM
      1 C           3.7161   -1.8413    0.0000 C.3     1  UNL1        0.0013
      2 C           8.0571   -4.6870    0.0000 C.3     1  UNL1        0.0103
      3 C           1.5400   -5.7248    0.0000 C.3     1  UNL1        0.0501
      4 C           7.0081   -4.7651    0.0000 C.3     1  UNL1        0.0039
      5 C          11.1595   -3.2697    0.0000 C.2     1  UNL1        0.0116
      6 C           5.9591   -5.4905    0.0000 C.3     1  UNL1        0.0440
      7 C          10.4341   -2.1761    0.0000 C.2     1  UNL1        0.0046
      8 C           7.1086   -1.2499    0.0000 C.3     1  UNL1        0.0411
      9 C           1.4619   -3.1916    0.0000 C.3     1  UNL1        0.0485
     10 C           3.3255   -0.6584    0.0000 C.3     1  UNL1        0.1561
     11 C           7.2536   -3.5152    0.0000 C.3     1  UNL1        0.0147
     12 C           6.5283   -2.4216    0.0000 C.3     1  UNL1        0.0619
     13 C           2.2319   -1.5065    0.0000 C.3     1  UNL1        0.1292
     14 C          10.5792   -4.4415    0.0000 C.3     1  UNL1        0.2305
     15 C           8.4142   -1.1717    0.0000 C.3     1  UNL1        0.1841
     16 C           1.2610   -4.3410    0.0000 C.3     1  UNL1        0.2073
     17 C           3.5375   -3.3367    0.0000 C.3     1  UNL1        0.0946
     18 C           9.2735   -4.5196    0.0000 C.2     1  UNL1        0.1869
     19 C           5.0441   -3.3032    0.0000 C.2     1  UNL1        0.2034
     20 C           0.8704   -1.8190    0.0000 C.2     1  UNL1        0.3189
     21 C           4.0174   -6.4613    0.0000 C.2     1  UNL1        0.3471
     22 C           2.5778   -2.6336    0.0000 C.3     1  UNL1        0.0252
     23 C           8.5481   -3.4260    0.0000 C.3     1  UNL1        0.0862
     24 C           2.5778   -4.9660    0.0000 C.3     1  UNL1        0.1980
     25 C           4.6758   -5.3231    0.0000 C.3     1  UNL1        0.2407
     26 C           9.1396   -2.2654    0.0000 C.3     1  UNL1        0.1787
     27 C           5.2338   -2.1203    0.0000 C.3     1  UNL1        0.2400
     28 C           3.8946   -4.2852    0.0000 C.3     1  UNL1        0.1739
     29 O           8.9945    0.0000    0.0000 O.3     1  UNL1       -0.2201
     30 O           8.6932   -5.6913    0.0000 O.2     1  UNL1       -0.2930
     31 O           5.8922   -4.2629    0.0000 O.2     1  UNL1       -0.2909
     32 O           0.0000   -0.8481    0.0000 O.2     1  UNL1       -0.2500
     33 O           4.5531   -7.6219    0.0000 O.2     1  UNL1       -0.2473
     34 O           5.2338   -6.4725    0.0000 O.3     1  UNL1       -0.2117
     35 O           4.6535   -0.8704    0.0000 O.3     1  UNL1       -0.3282
     36 O           0.4017   -3.1581    0.0000 O.3     1  UNL1       -0.4485
     37 O           2.7564   -6.2493    0.0000 O.3     1  UNL1       -0.4479
     38 O           4.0844   -2.6225    0.0000 O.3     1  UNL1       -0.3266
     39 O          10.1774   -1.4173    0.0000 O.3     1  UNL1       -0.2177
     40 O           9.8761   -3.1135    0.0000 O.3     1  UNL1       -0.2107
@<TRIPOS>BOND
     1     1    22    1
     2     2    23    1
     3     3    24    1
     4     4     6    1
     5     4    11    1
     6     5     7    2
     7     5    14    1
     8     6    25    1
     9     7    26    1
    10     8    12    1
    11     8    15    1
    12     9    16    1
    13     9    22    1
    14    10    13    1
    15    10    35    1
    16    11    12    1
    17    11    23    1
    18    12    27    1
    19    13    20    1
    20    13    22    1
    21    14    18    1
    22    14    40    1
    23    15    26    1
    24    15    29    1
    25    16    24    1
    26    16    36    1
    27    17    19    1
    28    17    22    1
    29    17    28    1
    30    18    23    1
    31    18    30    2
    32    19    27    1
    33    19    31    2
    34    20    32    2
    35    20    36    1
    36    21    25    1
    37    21    33    2
    38    21    37    1
    39    23    26    1
    40    24    28    1
    41    24    37    1
    42    25    28    1
    43    25    34    1
    44    26    39    1
    45    27    35    1
    46    27    38    1
    47    28    38    1
    48    39    40    1
