@<TRIPOS>MOLECULE
IMPHY005588
 52 52 0 0 0
SMALL
GASTEIGER

@<TRIPOS>ATOM
      1 C           4.1200    1.5675    0.0000 C.3     1  UNL1       -0.0167
      2 C           4.6200    2.4335    0.0000 C.3     1  UNL1       -0.0426
      3 C           3.1200    1.5675    0.0000 C.3     1  UNL1       -0.0280
      4 C           5.6200    2.4335    0.0000 C.3     1  UNL1       -0.0315
      5 C           4.4620    0.6278    0.0000 C.2     1  UNL1       -0.0763
      6 C           6.1200    1.5675    0.0000 C.2     1  UNL1       -0.0765
      7 C           2.6200    0.7015    0.0000 C.2     1  UNL1       -0.0845
      8 C           3.1200   -0.1645    0.0000 C.2     1  UNL1       -0.0762
      9 C           2.6200   -1.0306    0.0000 C.3     1  UNL1       -0.0286
     10 C           6.1200   -0.1645    0.0000 C.3     1  UNL1       -0.0308
     11 C           5.6200    0.7015    0.0000 C.2     1  UNL1       -0.0847
     12 C           5.6200   -1.0306    0.0000 C.3     1  UNL1       -0.0286
     13 C           3.1200   -1.8966    0.0000 C.3     1  UNL1       -0.0308
     14 C           3.4772    0.8014    0.0000 C.3     1  UNL1       -0.0438
     15 C           4.6200   -1.0306    0.0000 C.2     1  UNL1       -0.0762
     16 C           7.1200    1.5675    0.0000 C.3     1  UNL1       -0.0438
     17 C           4.1200   -1.8966    0.0000 C.2     1  UNL1       -0.0847
     18 C           4.8040   -0.3119    0.0000 C.2     1  UNL1       -0.0994
     19 C           3.6200   -1.0306    0.0000 C.3     1  UNL1       -0.0438
     20 C           4.1200   -0.1645    0.0000 C.3     1  UNL1       -0.0438
     21 H           4.7376    1.5135    0.0000 H       1  UNL1        0.0348
     22 H           4.7277    3.0441    0.0000 H       1  UNL1        0.0274
     23 H           4.0374    2.6456    0.0000 H       1  UNL1        0.0274
     24 H           3.2277    2.1781    0.0000 H       1  UNL1        0.0313
     25 H           2.5374    1.7796    0.0000 H       1  UNL1        0.0313
     26 H           6.2026    2.6456    0.0000 H       1  UNL1        0.0310
     27 H           5.5123    3.0441    0.0000 H       1  UNL1        0.0310
     28 H           2.0000    0.7015    0.0000 H       1  UNL1        0.0572
     29 H           2.1450   -0.6320    0.0000 H       1  UNL1        0.0313
     30 H           2.1450   -1.4291    0.0000 H       1  UNL1        0.0313
     31 H           6.5950   -0.5631    0.0000 H       1  UNL1        0.0310
     32 H           6.5950    0.2340    0.0000 H       1  UNL1        0.0310
     33 H           5.0374    0.9136    0.0000 H       1  UNL1        0.0572
     34 H           5.5123   -1.6412    0.0000 H       1  UNL1        0.0313
     35 H           6.2026   -1.2426    0.0000 H       1  UNL1        0.0313
     36 H           2.5374   -2.1086    0.0000 H       1  UNL1        0.0310
     37 H           3.2277   -2.5072    0.0000 H       1  UNL1        0.0310
     38 H           3.5849    1.4120    0.0000 H       1  UNL1        0.0274
     39 H           2.8666    0.9090    0.0000 H       1  UNL1        0.0274
     40 H           3.3696    0.1908    0.0000 H       1  UNL1        0.0274
     41 H           7.1200    0.9475    0.0000 H       1  UNL1        0.0274
     42 H           7.7400    1.5675    0.0000 H       1  UNL1        0.0274
     43 H           7.1200    2.1875    0.0000 H       1  UNL1        0.0274
     44 H           4.4300   -2.4335    0.0000 H       1  UNL1        0.0572
     45 H           4.4055   -0.7868    0.0000 H       1  UNL1        0.0534
     46 H           5.4146   -0.4196    0.0000 H       1  UNL1        0.0534
     47 H           3.0831   -1.3406    0.0000 H       1  UNL1        0.0274
     48 H           3.9300   -1.5675    0.0000 H       1  UNL1        0.0274
     49 H           4.1569   -0.7206    0.0000 H       1  UNL1        0.0274
     50 H           4.6569    0.1455    0.0000 H       1  UNL1        0.0274
     51 H           3.8100    0.3724    0.0000 H       1  UNL1        0.0274
     52 H           3.5831   -0.4745    0.0000 H       1  UNL1        0.0274
@<TRIPOS>BOND
     1     1     2    1
     2     1     3    1
     3     1     5    1
     4     1    21    1
     5     2     4    1
     6     2    22    1
     7     2    23    1
     8     3     7    1
     9     3    24    1
    10     3    25    1
    11     4     6    1
    12     4    26    1
    13     4    27    1
    14     5    14    1
    15     5    18    2
    16     6    11    2
    17     6    16    1
    18     7     8    2
    19     7    28    1
    20     8     9    1
    21     8    19    1
    22     9    13    1
    23     9    29    1
    24     9    30    1
    25    10    11    1
    26    10    12    1
    27    10    31    1
    28    10    32    1
    29    11    33    1
    30    12    15    1
    31    12    34    1
    32    12    35    1
    33    13    17    1
    34    13    36    1
    35    13    37    1
    36    14    38    1
    37    14    39    1
    38    14    40    1
    39    15    17    2
    40    15    20    1
    41    16    41    1
    42    16    42    1
    43    16    43    1
    44    17    44    1
    45    18    45    1
    46    18    46    1
    47    19    47    1
    48    19    48    1
    49    19    49    1
    50    20    50    1
    51    20    51    1
    52    20    52    1
