@<TRIPOS>MOLECULE
IMPHY003527
 47 51 0 0 0
SMALL
GASTEIGER

@<TRIPOS>ATOM
      1 O           7.6361   -2.2687    0.0000 O.3     1  UNL1       -0.4636
      2 O           5.3540    2.5967    0.0000 O.3     1  UNL1       -0.4562
      3 O           7.1238    2.5589    0.0000 O.2     1  UNL1       -0.2505
      4 O           6.9758   -3.7708    0.0000 O.2     1  UNL1       -0.2502
      5 O           2.0000    2.9029    0.0000 O.2     1  UNL1       -0.4706
      6 C           6.2360   -0.9726    0.0000 C.3     1  UNL1        0.0249
      7 C           5.3699   -0.4726    0.0000 C.3     1  UNL1       -0.0215
      8 C           5.3699    0.5274    0.0000 C.3     1  UNL1       -0.0118
      9 C           6.2360    1.0274    0.0000 C.3     1  UNL1        0.0622
     10 C           7.1020   -0.4726    0.0000 C.3     1  UNL1       -0.0422
     11 C           6.2520   -2.0141    0.0000 C.3     1  UNL1        0.0835
     12 C           7.1020    0.5274    0.0000 C.3     1  UNL1       -0.0389
     13 C           4.4599    1.0343    0.0000 C.3     1  UNL1       -0.0049
     14 C           4.4599   -0.9794    0.0000 C.3     1  UNL1       -0.0307
     15 C           7.2515   -1.1748    0.0000 C.3     1  UNL1        0.0994
     16 C           4.5039    0.0274    0.0000 C.3     1  UNL1       -0.0584
     17 C           4.4519    2.0759    0.0000 C.3     1  UNL1        0.1315
     18 C           5.3540   -2.5418    0.0000 C.2     1  UNL1       -0.0737
     19 C           6.2520    2.0690    0.0000 C.2     1  UNL1        0.3113
     20 C           6.9586   -2.7710    0.0000 C.2     1  UNL1        0.3147
     21 C           4.4519   -2.0210    0.0000 C.2     1  UNL1       -0.0868
     22 C           3.5840    2.5726    0.0000 C.ar    1  UNL1        0.0304
     23 C           3.4756    3.5667    0.0000 C.ar    1  UNL1       -0.0172
     24 C           2.6720    2.1623    0.0000 C.ar    1  UNL1        0.0983
     25 C           2.4967    3.7708    0.0000 C.ar    1  UNL1        0.0921
     26 H           6.1061   -0.0476    0.0000 H       1  UNL1        0.0316
     27 H           6.9753    1.4468    0.0000 H       1  UNL1        0.0419
     28 H           7.3140   -1.0552    0.0000 H       1  UNL1        0.0272
     29 H           7.7126   -0.3649    0.0000 H       1  UNL1        0.0272
     30 H           6.1299   -2.8552    0.0000 H       1  UNL1        0.0463
     31 H           7.7126    0.4198    0.0000 H       1  UNL1        0.0273
     32 H           7.3140    1.1101    0.0000 H       1  UNL1        0.0273
     33 H           3.8483    1.1357    0.0000 H       1  UNL1        0.0310
     34 H           4.2554    0.4490    0.0000 H       1  UNL1        0.0310
     35 H           4.2554   -0.3941    0.0000 H       1  UNL1        0.0310
     36 H           3.8483   -1.0808    0.0000 H       1  UNL1        0.0310
     37 H           7.8636   -1.0761    0.0000 H       1  UNL1        0.0703
     38 H           7.2629   -0.5549    0.0000 H       1  UNL1        0.0703
     39 H           4.1939    0.5644    0.0000 H       1  UNL1        0.0235
     40 H           3.9670   -0.2826    0.0000 H       1  UNL1        0.0235
     41 H           4.8139   -0.5095    0.0000 H       1  UNL1        0.0235
     42 H           3.7183    1.6466    0.0000 H       1  UNL1        0.0786
     43 H           5.3564   -3.1618    0.0000 H       1  UNL1        0.0577
     44 H           3.9138   -2.3289    0.0000 H       1  UNL1        0.0569
     45 H           3.9348    3.9833    0.0000 H       1  UNL1        0.0653
     46 H           2.5454    1.5554    0.0000 H       1  UNL1        0.1033
     47 H           2.2423    4.3362    0.0000 H       1  UNL1        0.1029
@<TRIPOS>BOND
     1     1    15    1
     2     1    20    1
     3     2    17    1
     4     2    19    1
     5     3    19    2
     6     4    20    2
     7     5    24   ar
     8     5    25   ar
     9     6     7    1
    10     6    10    1
    11     6    11    1
    12     6    15    1
    13     7     8    1
    14     7    14    1
    15     7    26    1
    16     8     9    1
    17     8    13    1
    18     8    16    1
    19     9    12    1
    20     9    19    1
    21     9    27    1
    22    10    12    1
    23    10    28    1
    24    10    29    1
    25    11    18    1
    26    11    20    1
    27    11    30    1
    28    12    31    1
    29    12    32    1
    30    13    17    1
    31    13    33    1
    32    13    34    1
    33    14    21    1
    34    14    35    1
    35    14    36    1
    36    15    37    1
    37    15    38    1
    38    16    39    1
    39    16    40    1
    40    16    41    1
    41    17    22    1
    42    17    42    1
    43    18    21    2
    44    18    43    1
    45    21    44    1
    46    22    23   ar
    47    22    24   ar
    48    23    25   ar
    49    23    45    1
    50    24    46    1
    51    25    47    1
