@<TRIPOS>MOLECULE
IMPHY007713
 26 25 0 0 0
SMALL
GASTEIGER

@<TRIPOS>ATOM
      1 O           5.4641    0.7500    0.0000 O.3     1  UNL1       -0.4646
      2 O           4.5981   -0.7500    0.0000 O.2     1  UNL1       -0.2509
      3 C           7.1962    0.7500    0.0000 C.3     1  UNL1       -0.0188
      4 C           8.0622    0.2500    0.0000 C.3     1  UNL1       -0.0528
      5 C           6.3301    0.2500    0.0000 C.3     1  UNL1        0.0924
      6 C           3.7320    0.7500    0.0000 C.3     1  UNL1        0.0447
      7 C           2.8660    0.2500    0.0000 C.3     1  UNL1       -0.0458
      8 C           8.9282    0.7500    0.0000 C.3     1  UNL1       -0.0652
      9 C           4.5981    0.2500    0.0000 C.2     1  UNL1        0.3071
     10 C           2.0000    0.7500    0.0000 C.3     1  UNL1       -0.0648
     11 H           7.5947    1.2250    0.0000 H       1  UNL1        0.0298
     12 H           6.7976    1.2250    0.0000 H       1  UNL1        0.0298
     13 H           7.6636   -0.2249    0.0000 H       1  UNL1        0.0264
     14 H           8.4607   -0.2249    0.0000 H       1  UNL1        0.0264
     15 H           5.9316   -0.2249    0.0000 H       1  UNL1        0.0697
     16 H           6.7287   -0.2249    0.0000 H       1  UNL1        0.0697
     17 H           4.1306    1.2250    0.0000 H       1  UNL1        0.0377
     18 H           3.3335    1.2250    0.0000 H       1  UNL1        0.0377
     19 H           2.4675   -0.2249    0.0000 H       1  UNL1        0.0268
     20 H           3.2646   -0.2249    0.0000 H       1  UNL1        0.0268
     21 H           9.2382    0.2131    0.0000 H       1  UNL1        0.0230
     22 H           9.4651    1.0600    0.0000 H       1  UNL1        0.0230
     23 H           8.6182    1.2869    0.0000 H       1  UNL1        0.0230
     24 H           2.3100    1.2869    0.0000 H       1  UNL1        0.0230
     25 H           1.4631    1.0600    0.0000 H       1  UNL1        0.0230
     26 H           1.6900    0.2131    0.0000 H       1  UNL1        0.0230
@<TRIPOS>BOND
     1     1     5    1
     2     1     9    1
     3     2     9    2
     4     3     4    1
     5     3     5    1
     6     3    11    1
     7     3    12    1
     8     4     8    1
     9     4    13    1
    10     4    14    1
    11     5    15    1
    12     5    16    1
    13     6     7    1
    14     6     9    1
    15     6    17    1
    16     6    18    1
    17     7    10    1
    18     7    19    1
    19     7    20    1
    20     8    21    1
    21     8    22    1
    22     8    23    1
    23    10    24    1
    24    10    25    1
    25    10    26    1
