@<TRIPOS>MOLECULE
IMPHY008749
 143 150 0 0 0
SMALL
GASTEIGER

@<TRIPOS>ATOM
      1 O           6.8671   -2.3970    0.0000 O.3     1  UNL1       -0.3449
      2 O           8.6424    6.9575    0.0000 O.3     1  UNL1       -0.3912
      3 O           5.8747    8.1749    0.0000 O.3     1  UNL1       -0.4802
      4 O           5.1350   -2.3970    0.0000 O.3     1  UNL1       -0.3315
      5 O           4.3882    7.2858    0.0000 O.2     1  UNL1       -0.2504
      6 O           6.8671   -4.3970    0.0000 O.3     1  UNL1       -0.3377
      7 O           5.1350   -5.3970    0.0000 O.3     1  UNL1       -0.3864
      8 O           3.4030   -4.3970    0.0000 O.3     1  UNL1       -0.3860
      9 O           6.0010   -5.8970    0.0000 O.3     1  UNL1       -0.3405
     10 O           2.5369   -2.8970    0.0000 O.3     1  UNL1       -0.4788
     11 O           3.4030   -1.3970    0.0000 O.2     1  UNL1       -0.2480
     12 O           8.5991   -5.3970    0.0000 O.3     1  UNL1       -0.3378
     13 O           8.5991   -7.3970    0.0000 O.3     1  UNL1       -0.3864
     14 O           6.8671   -8.3970    0.0000 O.3     1  UNL1       -0.3865
     15 O           9.4651   -6.8970    0.0000 O.3     1  UNL1       -0.3431
     16 O           4.2690   -6.8970    0.0000 O.3     1  UNL1       -0.3924
     17 O          10.3312   -4.3970    0.0000 O.3     1  UNL1       -0.3841
     18 O          12.0632   -5.3970    0.0000 O.3     1  UNL1       -0.3864
     19 O          12.0632   -7.3970    0.0000 O.3     1  UNL1       -0.3866
     20 C           7.7681    2.3032    0.0000 C.3     1  UNL1       -0.0194
     21 C           6.9040    1.7999    0.0000 C.3     1  UNL1       -0.0257
     22 C           6.8920    0.7583    0.0000 C.3     1  UNL1       -0.0250
     23 C           7.7643    3.3032    0.0000 C.3     1  UNL1       -0.0051
     24 C           7.7920    0.2340    0.0000 C.3     1  UNL1       -0.0278
     25 C           8.6801    1.7999    0.0000 C.3     1  UNL1       -0.0463
     26 C           6.8963    3.7999    0.0000 C.2     1  UNL1       -0.0633
     27 C           8.6921    0.7583    0.0000 C.3     1  UNL1       -0.0486
     28 C           7.8046   -0.8509    0.0000 C.3     1  UNL1       -0.0052
     29 C           6.8762    4.8413    0.0000 C.3     1  UNL1       -0.0106
     30 C           7.7722    5.3725    0.0000 C.3     1  UNL1        0.0005
     31 C           6.0361    2.2966    0.0000 C.3     1  UNL1       -0.0306
     32 C           8.6723    3.8136    0.0000 C.3     1  UNL1       -0.0428
     33 C           5.9421    0.2340    0.0000 C.3     1  UNL1       -0.0447
     34 C           8.6763    4.8552    0.0000 C.3     1  UNL1       -0.0439
     35 C           8.7522    2.4807    0.0000 C.3     1  UNL1       -0.0585
     36 C           6.8671   -1.3970    0.0000 C.3     1  UNL1        0.0672
     37 C           6.0322    3.2965    0.0000 C.2     1  UNL1       -0.0836
     38 C           6.0279    1.2617    0.0000 C.3     1  UNL1       -0.0590
     39 C           5.9295   -0.8509    0.0000 C.3     1  UNL1       -0.0255
     40 C           8.7497    3.1334    0.0000 C.3     1  UNL1       -0.0553
     41 C           5.9223    5.3583    0.0000 C.3     1  UNL1       -0.0303
     42 C           7.7764    6.4575    0.0000 C.3     1  UNL1        0.0621
     43 C           5.9014    6.4431    0.0000 C.3     1  UNL1        0.0677
     44 C           8.8046   -0.8432    0.0000 C.3     1  UNL1       -0.0572
     45 C           8.3113   -1.7130    0.0000 C.3     1  UNL1       -0.0572
     46 C           6.8347    6.9964    0.0000 C.3     1  UNL1       -0.0108
     47 C           8.6324    5.8825    0.0000 C.3     1  UNL1       -0.0567
     48 C           4.9015    6.4276    0.0000 C.3     1  UNL1       -0.0493
     49 C           5.3881    7.3013    0.0000 C.2     1  UNL1        0.3108
     50 C           6.0010   -2.8970    0.0000 C.3     1  UNL1        0.1892
     51 C           6.0010   -3.8970    0.0000 C.3     1  UNL1        0.1407
     52 C           5.1350   -4.3970    0.0000 C.3     1  UNL1        0.1149
     53 C           4.2690   -2.8970    0.0000 C.3     1  UNL1        0.1859
     54 C           4.2690   -3.8970    0.0000 C.3     1  UNL1        0.1202
     55 C           6.8671   -5.3970    0.0000 C.3     1  UNL1        0.1889
     56 C           3.4030   -2.3970    0.0000 C.2     1  UNL1        0.3367
     57 C           7.7331   -5.8970    0.0000 C.3     1  UNL1        0.1406
     58 C           7.7331   -6.8970    0.0000 C.3     1  UNL1        0.1144
     59 C           6.0010   -6.8970    0.0000 C.3     1  UNL1        0.1130
     60 C           6.8671   -7.3970    0.0000 C.3     1  UNL1        0.1119
     61 C           5.1350   -7.3970    0.0000 C.3     1  UNL1        0.0730
     62 C           9.4651   -5.8970    0.0000 C.3     1  UNL1        0.1884
     63 C          10.3312   -5.3970    0.0000 C.3     1  UNL1        0.1341
     64 C          11.1972   -5.8970    0.0000 C.3     1  UNL1        0.1140
     65 C          10.3312   -7.3970    0.0000 C.3     1  UNL1        0.0873
     66 C          11.1972   -6.8970    0.0000 C.3     1  UNL1        0.1095
     67 C          10.3312   -8.3970    0.0000 C.3     1  UNL1       -0.0361
     68 H           7.6385    1.3721    0.0000 H       1  UNL1        0.0315
     69 H           8.5314   -0.1853    0.0000 H       1  UNL1        0.0312
     70 H           9.2921    1.7009    0.0000 H       1  UNL1        0.0271
     71 H           8.8824    2.3860    0.0000 H       1  UNL1        0.0271
     72 H           8.9079    0.1771    0.0000 H       1  UNL1        0.0268
     73 H           9.3017    0.8715    0.0000 H       1  UNL1        0.0268
     74 H           6.1502    4.3994    0.0000 H       1  UNL1        0.0352
     75 H           5.4251    2.4019    0.0000 H       1  UNL1        0.0310
     76 H           5.8263    1.7131    0.0000 H       1  UNL1        0.0310
     77 H           8.8791    3.2291    0.0000 H       1  UNL1        0.0274
     78 H           9.2836    3.9173    0.0000 H       1  UNL1        0.0274
     79 H           5.7398    0.8201    0.0000 H       1  UNL1        0.0271
     80 H           5.3300    0.1350    0.0000 H       1  UNL1        0.0271
     81 H           9.2868    4.7467    0.0000 H       1  UNL1        0.0272
     82 H           8.8876    5.4381    0.0000 H       1  UNL1        0.0272
     83 H           8.8623    1.8705    0.0000 H       1  UNL1        0.0235
     84 H           9.3624    2.5907    0.0000 H       1  UNL1        0.0235
     85 H           8.6422    3.0908    0.0000 H       1  UNL1        0.0235
     86 H           7.4046   -1.7060    0.0000 H       1  UNL1        0.0602
     87 H           5.4941    3.6045    0.0000 H       1  UNL1        0.0572
     88 H           6.3400    1.7974    0.0000 H       1  UNL1        0.0235
     89 H           5.4922    1.5737    0.0000 H       1  UNL1        0.0235
     90 H           5.7158    0.7259    0.0000 H       1  UNL1        0.0235
     91 H           5.3199   -0.7377    0.0000 H       1  UNL1        0.0290
     92 H           5.7137   -1.4321    0.0000 H       1  UNL1        0.0290
     93 H           8.6444    2.5224    0.0000 H       1  UNL1        0.0238
     94 H           9.3607    3.0281    0.0000 H       1  UNL1        0.0238
     95 H           8.8550    3.7444    0.0000 H       1  UNL1        0.0238
     96 H           5.3095    5.4526    0.0000 H       1  UNL1        0.0282
     97 H           5.7246    4.7706    0.0000 H       1  UNL1        0.0282
     98 H           7.7752    7.0775    0.0000 H       1  UNL1        0.0599
     99 H           8.8094   -1.4632    0.0000 H       1  UNL1        0.0236
    100 H           9.4246   -0.8384    0.0000 H       1  UNL1        0.0236
    101 H           8.7998   -0.2232    0.0000 H       1  UNL1        0.0236
    102 H           7.7767   -2.0272    0.0000 H       1  UNL1        0.0236
    103 H           8.6254   -2.2476    0.0000 H       1  UNL1        0.0236
    104 H           8.8458   -1.3989    0.0000 H       1  UNL1        0.0236
    105 H           7.2302    7.4739    0.0000 H       1  UNL1        0.0301
    106 H           6.4319    7.4677    0.0000 H       1  UNL1        0.0301
    107 H           8.9486    5.3492    0.0000 H       1  UNL1        0.0236
    108 H           9.1657    6.1987    0.0000 H       1  UNL1        0.0236
    109 H           8.3162    6.4158    0.0000 H       1  UNL1        0.0236
    110 H           4.8920    7.0476    0.0000 H       1  UNL1        0.0240
    111 H           4.2816    6.4181    0.0000 H       1  UNL1        0.0240
    112 H           4.9111    5.8077    0.0000 H       1  UNL1        0.0240
    113 H           8.6424    7.5775    0.0000 H       1  UNL1        0.2098
    114 H           6.0010   -2.2770    0.0000 H       1  UNL1        0.0938
    115 H           6.5380   -3.5870    0.0000 H       1  UNL1        0.0675
    116 H           5.5565    8.7070    0.0000 H       1  UNL1        0.2951
    117 H           5.6720   -4.7070    0.0000 H       1  UNL1        0.0648
    118 H           4.2690   -2.2770    0.0000 H       1  UNL1        0.0741
    119 H           3.7320   -3.5870    0.0000 H       1  UNL1        0.0652
    120 H           7.4040   -5.0870    0.0000 H       1  UNL1        0.0938
    121 H           4.5981   -5.7070    0.0000 H       1  UNL1        0.2100
    122 H           3.4030   -5.0170    0.0000 H       1  UNL1        0.2100
    123 H           8.2700   -6.2070    0.0000 H       1  UNL1        0.0675
    124 H           7.7331   -7.5170    0.0000 H       1  UNL1        0.0648
    125 H           5.4641   -6.5870    0.0000 H       1  UNL1        0.0647
    126 H           6.3301   -7.7070    0.0000 H       1  UNL1        0.0647
    127 H           2.0000   -2.5870    0.0000 H       1  UNL1        0.2951
    128 H           4.7365   -7.8719    0.0000 H       1  UNL1        0.0584
    129 H           5.5335   -7.8719    0.0000 H       1  UNL1        0.0584
    130 H           9.4651   -5.2770    0.0000 H       1  UNL1        0.0938
    131 H           8.5991   -8.0170    0.0000 H       1  UNL1        0.2100
    132 H           6.3301   -8.7070    0.0000 H       1  UNL1        0.2100
    133 H          10.8681   -5.0870    0.0000 H       1  UNL1        0.0671
    134 H          11.7341   -6.2070    0.0000 H       1  UNL1        0.0648
    135 H           3.7320   -7.2070    0.0000 H       1  UNL1        0.2095
    136 H           9.7942   -7.7070    0.0000 H       1  UNL1        0.0621
    137 H          11.1972   -7.5170    0.0000 H       1  UNL1        0.0646
    138 H          10.8681   -4.0870    0.0000 H       1  UNL1        0.2101
    139 H           9.7112   -8.3970    0.0000 H       1  UNL1        0.0255
    140 H          10.3312   -9.0170    0.0000 H       1  UNL1        0.0255
    141 H          10.9512   -8.3970    0.0000 H       1  UNL1        0.0255
    142 H          12.0632   -4.7770    0.0000 H       1  UNL1        0.2100
    143 H          12.0632   -8.0170    0.0000 H       1  UNL1        0.2100
@<TRIPOS>BOND
     1    36     1    1
     2    50     1    1
     3    42     2    1
     4     2   113    1
     5     3    49    1
     6     3   116    1
     7     4    50    1
     8     4    53    1
     9     5    49    2
    10    51     6    1
    11    55     6    1
    12    52     7    1
    13     7   121    1
    14    54     8    1
    15     8   122    1
    16     9    55    1
    17     9    59    1
    18    10    56    1
    19    10   127    1
    20    11    56    2
    21    57    12    1
    22    62    12    1
    23    58    13    1
    24    13   131    1
    25    60    14    1
    26    14   132    1
    27    15    62    1
    28    15    65    1
    29    16    61    1
    30    16   135    1
    31    63    17    1
    32    17   138    1
    33    64    18    1
    34    18   142    1
    35    66    19    1
    36    19   143    1
    37    20    21    1
    38    20    23    1
    39    20    25    1
    40    20    35    1
    41    21    22    1
    42    21    31    1
    43    21    68    1
    44    22    24    1
    45    22    33    1
    46    22    38    1
    47    23    26    1
    48    23    32    1
    49    23    40    1
    50    24    27    1
    51    24    28    1
    52    24    69    1
    53    25    27    1
    54    25    70    1
    55    25    71    1
    56    26    29    1
    57    26    37    2
    58    27    72    1
    59    27    73    1
    60    28    36    1
    61    28    44    1
    62    28    45    1
    63    29    30    1
    64    29    41    1
    65    29    74    1
    66    30    34    1
    67    30    42    1
    68    30    47    1
    69    31    37    1
    70    31    75    1
    71    31    76    1
    72    32    34    1
    73    32    77    1
    74    32    78    1
    75    33    39    1
    76    33    79    1
    77    33    80    1
    78    34    81    1
    79    34    82    1
    80    35    83    1
    81    35    84    1
    82    35    85    1
    83    36    39    1
    84    36    86    1
    85    37    87    1
    86    38    88    1
    87    38    89    1
    88    38    90    1
    89    39    91    1
    90    39    92    1
    91    40    93    1
    92    40    94    1
    93    40    95    1
    94    41    43    1
    95    41    96    1
    96    41    97    1
    97    42    46    1
    98    42    98    1
    99    43    46    1
   100    43    48    1
   101    43    49    1
   102    44    99    1
   103    44   100    1
   104    44   101    1
   105    45   102    1
   106    45   103    1
   107    45   104    1
   108    46   105    1
   109    46   106    1
   110    47   107    1
   111    47   108    1
   112    47   109    1
   113    48   110    1
   114    48   111    1
   115    48   112    1
   116    50    51    1
   117    50   114    1
   118    51    52    1
   119    51   115    1
   120    52    54    1
   121    52   117    1
   122    53    54    1
   123    53    56    1
   124    53   118    1
   125    54   119    1
   126    55    57    1
   127    55   120    1
   128    57    58    1
   129    57   123    1
   130    58    60    1
   131    58   124    1
   132    59    60    1
   133    59    61    1
   134    59   125    1
   135    60   126    1
   136    61   128    1
   137    61   129    1
   138    62    63    1
   139    62   130    1
   140    63    64    1
   141    63   133    1
   142    64    66    1
   143    64   134    1
   144    65    66    1
   145    65    67    1
   146    65   136    1
   147    66   137    1
   148    67   139    1
   149    67   140    1
   150    67   141    1
