@<TRIPOS>MOLECULE
IMPHY015269
 26 26 0 0 0
SMALL
GASTEIGER

@<TRIPOS>ATOM
      1 O           7.1962    1.0000    0.0000 O.3     1  UNL1       -0.4786
      2 N           5.4641   -1.0000    0.0000 N.ar    1  UNL1       -0.2531
      3 N           5.4641    1.0000    0.0000 N.ar    1  UNL1       -0.2183
      4 C           2.8660   -0.5000    0.0000 C.3     1  UNL1       -0.0413
      5 C           3.7320   -1.0000    0.0000 C.3     1  UNL1       -0.0066
      6 C           2.0000   -1.0000    0.0000 C.3     1  UNL1       -0.0623
      7 C           2.8660    0.5000    0.0000 C.3     1  UNL1       -0.0623
      8 C           4.5981   -0.5000    0.0000 C.ar    1  UNL1        0.0598
      9 C           4.5981    0.5000    0.0000 C.ar    1  UNL1        0.0527
     10 C           6.3301   -0.5000    0.0000 C.ar    1  UNL1        0.0893
     11 C           6.3301    0.5000    0.0000 C.ar    1  UNL1        0.2332
     12 C           8.0622    0.5000    0.0000 C.3     1  UNL1        0.0805
     13 H           2.8660   -1.1200    0.0000 H       1  UNL1        0.0299
     14 H           3.3335   -1.4750    0.0000 H       1  UNL1        0.0331
     15 H           4.1306   -1.4750    0.0000 H       1  UNL1        0.0331
     16 H           1.6900   -0.4631    0.0000 H       1  UNL1        0.0232
     17 H           1.4631   -1.3100    0.0000 H       1  UNL1        0.0232
     18 H           2.3100   -1.5369    0.0000 H       1  UNL1        0.0232
     19 H           3.4860    0.5000    0.0000 H       1  UNL1        0.0232
     20 H           2.8660    1.1200    0.0000 H       1  UNL1        0.0232
     21 H           2.2460    0.5000    0.0000 H       1  UNL1        0.0232
     22 H           4.0611    0.8100    0.0000 H       1  UNL1        0.0849
     23 H           6.8671   -0.8100    0.0000 H       1  UNL1        0.0884
     24 H           7.7522   -0.0369    0.0000 H       1  UNL1        0.0660
     25 H           8.5991    0.1900    0.0000 H       1  UNL1        0.0660
     26 H           8.3722    1.0369    0.0000 H       1  UNL1        0.0660
@<TRIPOS>BOND
     1     1    11    1
     2     1    12    1
     3     2     8   ar
     4     2    10   ar
     5     3     9   ar
     6     3    11   ar
     7     4     5    1
     8     4     6    1
     9     4     7    1
    10     4    13    1
    11     5     8    1
    12     5    14    1
    13     5    15    1
    14     6    16    1
    15     6    17    1
    16     6    18    1
    17     7    19    1
    18     7    20    1
    19     7    21    1
    20     8     9   ar
    21     9    22    1
    22    10    11   ar
    23    10    23    1
    24    12    24    1
    25    12    25    1
    26    12    26    1
