@<TRIPOS>MOLECULE
IMPHY011268
 61 63 0 0 0
SMALL
GASTEIGER

@<TRIPOS>ATOM
      1 O           2.4846    3.1363    0.0000 O.2     1  UNL1       -0.2758
      2 O           3.6672   -2.7654    0.0000 O.2     1  UNL1       -0.2706
      3 N           5.9187    2.3878    0.0000 N.3     1  UNL1       -0.3089
      4 N           4.5332   -1.2654    0.0000 N.am    1  UNL1       -0.2980
      5 N           2.5797    1.5648    0.0000 N.am    1  UNL1       -0.3152
      6 C           5.0332    2.8525    0.0000 C.3     1  UNL1        0.0411
      7 C           6.6073    0.5721    0.0000 C.3     1  UNL1       -0.0390
      8 C           6.2527   -0.3629    0.0000 C.3     1  UNL1       -0.0360
      9 C           6.4868    1.5648    0.0000 C.3     1  UNL1       -0.0035
     10 C           5.5042   -1.0260    0.0000 C.3     1  UNL1        0.0150
     11 C           4.0332    2.8525    0.0000 C.3     1  UNL1        0.0434
     12 C           3.5623   -1.0260    0.0000 C.3     1  UNL1        0.0164
     13 C           2.8138   -0.3629    0.0000 C.3     1  UNL1       -0.0215
     14 C           5.2726    3.8235    0.0000 C.ar    1  UNL1       -0.0300
     15 C           2.4592    0.5721    0.0000 C.3     1  UNL1        0.0130
     16 C           3.1478    2.3878    0.0000 C.2     1  UNL1        0.2148
     17 C           4.5332   -2.2654    0.0000 C.2     1  UNL1        0.2394
     18 C           6.2331    4.1017    0.0000 C.ar    1  UNL1       -0.0571
     19 C           4.5513    4.5162    0.0000 C.ar    1  UNL1       -0.0571
     20 C           6.4724    5.0726    0.0000 C.ar    1  UNL1       -0.0615
     21 C           4.7907    5.4871    0.0000 C.ar    1  UNL1       -0.0615
     22 C           5.3993   -2.7654    0.0000 C.2     1  UNL1        0.0009
     23 C           5.7512    5.7654    0.0000 C.ar    1  UNL1       -0.0617
     24 C           5.3993   -3.7654    0.0000 C.2     1  UNL1       -0.0497
     25 C           6.2653   -4.2654    0.0000 C.ar    1  UNL1       -0.0249
     26 C           6.2653   -5.2654    0.0000 C.ar    1  UNL1       -0.0546
     27 C           7.1313   -3.7654    0.0000 C.ar    1  UNL1       -0.0546
     28 C           7.1313   -5.7654    0.0000 C.ar    1  UNL1       -0.0612
     29 C           7.9973   -4.2654    0.0000 C.ar    1  UNL1       -0.0612
     30 C           7.9973   -5.2654    0.0000 C.ar    1  UNL1       -0.0617
     31 H           5.5986    3.1070    0.0000 H       1  UNL1        0.0515
     32 H           7.0714    0.1610    0.0000 H       1  UNL1        0.0278
     33 H           5.9918    0.6468    0.0000 H       1  UNL1        0.0278
     34 H           6.4725   -0.9426    0.0000 H       1  UNL1        0.0281
     35 H           5.7424   -0.0107    0.0000 H       1  UNL1        0.0281
     36 H           7.0887    1.4164    0.0000 H       1  UNL1        0.0424
     37 H           5.9070    1.3450    0.0000 H       1  UNL1        0.0424
     38 H           5.4294   -1.6415    0.0000 H       1  UNL1        0.0465
     39 H           5.2160   -0.4770    0.0000 H       1  UNL1        0.0465
     40 H           6.3298    2.8519    0.0000 H       1  UNL1        0.1225
     41 H           4.2531    3.4322    0.0000 H       1  UNL1        0.0377
     42 H           4.1816    2.2505    0.0000 H       1  UNL1        0.0377
     43 H           3.0133   -1.3142    0.0000 H       1  UNL1        0.0465
     44 H           3.8504   -0.4770    0.0000 H       1  UNL1        0.0465
     45 H           2.1938   -0.3629    0.0000 H       1  UNL1        0.0295
     46 H           3.3240   -0.0107    0.0000 H       1  UNL1        0.0295
     47 H           1.9102    0.8602    0.0000 H       1  UNL1        0.0462
     48 H           3.0746    0.6468    0.0000 H       1  UNL1        0.0462
     49 H           2.0000    1.7847    0.0000 H       1  UNL1        0.1487
     50 H           6.6802    3.6722    0.0000 H       1  UNL1        0.0621
     51 H           3.9558    4.3437    0.0000 H       1  UNL1        0.0621
     52 H           7.0679    5.2451    0.0000 H       1  UNL1        0.0618
     53 H           4.3435    5.9166    0.0000 H       1  UNL1        0.0618
     54 H           5.9362   -2.4554    0.0000 H       1  UNL1        0.0670
     55 H           5.8995    6.3673    0.0000 H       1  UNL1        0.0618
     56 H           4.8623   -4.0754    0.0000 H       1  UNL1        0.0625
     57 H           5.7284   -5.5754    0.0000 H       1  UNL1        0.0623
     58 H           7.1313   -3.1454    0.0000 H       1  UNL1        0.0623
     59 H           7.1313   -6.3854    0.0000 H       1  UNL1        0.0618
     60 H           8.5343   -3.9554    0.0000 H       1  UNL1        0.0618
     61 H           8.5343   -5.5754    0.0000 H       1  UNL1        0.0618
@<TRIPOS>BOND
     1     1    16    2
     2     2    17    2
     3     3     6    1
     4     3     9    1
     5     3    40    1
     6     4    10    1
     7     4    12    1
     8     4    17   am
     9     5    15    1
    10     5    16   am
    11     5    49    1
    12     6    11    1
    13     6    14    1
    14     6    31    1
    15     7     8    1
    16     7     9    1
    17     7    32    1
    18     7    33    1
    19     8    10    1
    20     8    34    1
    21     8    35    1
    22     9    36    1
    23     9    37    1
    24    10    38    1
    25    10    39    1
    26    11    16    1
    27    11    41    1
    28    11    42    1
    29    12    13    1
    30    12    43    1
    31    12    44    1
    32    13    15    1
    33    13    45    1
    34    13    46    1
    35    14    18   ar
    36    14    19   ar
    37    15    47    1
    38    15    48    1
    39    17    22    1
    40    18    20   ar
    41    18    50    1
    42    19    21   ar
    43    19    51    1
    44    20    23   ar
    45    20    52    1
    46    21    23   ar
    47    21    53    1
    48    22    24    2
    49    22    54    1
    50    23    55    1
    51    24    25    1
    52    24    56    1
    53    25    26   ar
    54    25    27   ar
    55    26    28   ar
    56    26    57    1
    57    27    29   ar
    58    27    58    1
    59    28    30   ar
    60    28    59    1
    61    29    30   ar
    62    29    60    1
    63    30    61    1
