@<TRIPOS>MOLECULE
IMPHY016873
 19 19 0 0 0
SMALL
GASTEIGER

@<TRIPOS>ATOM
      1 O           3.7320    1.0000    0.0000 O.3     1  UNL1       -0.4308
      2 O           2.0000    1.0000    0.0000 O.2     1  UNL1       -0.2445
      3 C           2.8660   -0.5000    0.0000 C.ar    1  UNL1        0.0594
      4 C           2.0000   -1.0000    0.0000 C.ar    1  UNL1       -0.0478
      5 C           3.7320   -1.0000    0.0000 C.ar    1  UNL1       -0.0478
      6 C           2.0000   -2.0000    0.0000 C.ar    1  UNL1       -0.0610
      7 C           3.7320   -2.0000    0.0000 C.ar    1  UNL1       -0.0610
      8 C           2.8660   -2.5000    0.0000 C.ar    1  UNL1       -0.0617
      9 C           2.8660    0.5000    0.0000 C.2     1  UNL1        0.3439
     10 C           3.7320    2.0000    0.0000 C.2     1  UNL1        0.0889
     11 C           4.5981    2.5000    0.0000 C.2     1  UNL1       -0.0635
     12 H           1.4631   -0.6900    0.0000 H       1  UNL1        0.0626
     13 H           4.2690   -0.6900    0.0000 H       1  UNL1        0.0626
     14 H           1.4631   -2.3100    0.0000 H       1  UNL1        0.0618
     15 H           4.2690   -2.3100    0.0000 H       1  UNL1        0.0618
     16 H           2.8660   -3.1200    0.0000 H       1  UNL1        0.0618
     17 H           3.1951    2.3100    0.0000 H       1  UNL1        0.1024
     18 H           5.1350    2.1900    0.0000 H       1  UNL1        0.0565
     19 H           4.5981    3.1200    0.0000 H       1  UNL1        0.0565
@<TRIPOS>BOND
     1     1     9    1
     2     1    10    1
     3     2     9    2
     4     3     4   ar
     5     3     5   ar
     6     3     9    1
     7     4     6   ar
     8     4    12    1
     9     5     7   ar
    10     5    13    1
    11     6     8   ar
    12     6    14    1
    13     7     8   ar
    14     7    15    1
    15     8    16    1
    16    10    11    2
    17    10    17    1
    18    11    18    1
    19    11    19    1
