@<TRIPOS>MOLECULE
IMPHY013423
 75 79 0 0 0
SMALL
GASTEIGER

@<TRIPOS>ATOM
      1 O          10.3551    3.4313    0.0000 O.3     1  UNL1       -0.3609
      2 O           5.1350   -2.6246    0.0000 O.3     1  UNL1       -0.3313
      3 O           8.6153    1.4380    0.0000 O.3     1  UNL1       -0.3862
      4 O          10.3435    0.4313    0.0000 O.3     1  UNL1       -0.3865
      5 O          12.0794    1.4246    0.0000 O.3     1  UNL1       -0.3865
      6 O           6.8671   -2.6246    0.0000 O.3     1  UNL1       -0.4608
      7 O           5.1350   -5.6246    0.0000 O.3     1  UNL1       -0.3864
      8 O           3.4030   -4.6246    0.0000 O.3     1  UNL1       -0.3865
      9 O           6.8671   -4.6246    0.0000 O.3     1  UNL1       -0.3829
     10 O           7.7671    1.8997    0.0000 O.2     1  UNL1       -0.4540
     11 O          12.9512    2.9212    0.0000 O.3     1  UNL1       -0.3924
     12 O           9.4948    4.9346    0.0000 O.3     1  UNL1       -0.4945
     13 O           2.5369   -3.1246    0.0000 O.3     1  UNL1       -0.3924
     14 O           6.0308    4.9479    0.0000 O.3     1  UNL1       -0.5058
     15 O           5.1208    3.4546    0.0000 O.2     1  UNL1       -0.2869
     16 C           9.4833    1.9346    0.0000 C.3     1  UNL1        0.1139
     17 C          10.3474    1.4313    0.0000 C.3     1  UNL1        0.1121
     18 C           9.4871    2.9346    0.0000 C.3     1  UNL1        0.1193
     19 C          11.2153    1.9279    0.0000 C.3     1  UNL1        0.1117
     20 C          11.2192    2.9279    0.0000 C.3     1  UNL1        0.1108
     21 C           8.6230    3.4379    0.0000 C.ar    1  UNL1        0.0684
     22 C           5.1350   -4.6246    0.0000 C.3     1  UNL1        0.1152
     23 C           4.2690   -4.1246    0.0000 C.3     1  UNL1        0.1120
     24 C           6.0010   -4.1246    0.0000 C.3     1  UNL1        0.1454
     25 C           4.2690   -3.1246    0.0000 C.3     1  UNL1        0.1140
     26 C          12.0871    3.4246    0.0000 C.3     1  UNL1        0.0729
     27 C           6.0010   -3.1246    0.0000 C.3     1  UNL1        0.2308
     28 C           7.7551    2.9413    0.0000 C.ar    1  UNL1        0.1520
     29 C           8.6269    4.4379    0.0000 C.ar    1  UNL1        0.1328
     30 C           3.4030   -2.6246    0.0000 C.3     1  UNL1        0.0731
     31 C           6.8910    3.4446    0.0000 C.ar    1  UNL1        0.1058
     32 C           7.7628    4.9413    0.0000 C.ar    1  UNL1        0.0228
     33 C           6.8948    4.4446    0.0000 C.ar    1  UNL1        0.1347
     34 C           6.8671    1.3754    0.0000 C.ar    1  UNL1        0.1392
     35 C           5.9790    2.9413    0.0000 C.ar    1  UNL1        0.1966
     36 C           6.8671   -1.6246    0.0000 C.ar    1  UNL1        0.1240
     37 C           5.9670    1.8997    0.0000 C.ar    1  UNL1        0.0288
     38 C           6.8671    0.3754    0.0000 C.ar    1  UNL1        0.0176
     39 C           7.7331   -1.1246    0.0000 C.ar    1  UNL1       -0.0192
     40 C           6.0010   -1.1246    0.0000 C.ar    1  UNL1       -0.0192
     41 C           7.7331   -0.1246    0.0000 C.ar    1  UNL1       -0.0476
     42 C           6.0010   -0.1246    0.0000 C.ar    1  UNL1       -0.0476
     43 C           9.4987    5.9346    0.0000 C.3     1  UNL1        0.0788
     44 H           8.9475    2.2467    0.0000 H       1  UNL1        0.0649
     45 H          10.8831    1.1192    0.0000 H       1  UNL1        0.0647
     46 H           9.4904    3.7846    0.0000 H       1  UNL1        0.0676
     47 H          11.7534    2.2359    0.0000 H       1  UNL1        0.0647
     48 H          11.2215    3.5479    0.0000 H       1  UNL1        0.0646
     49 H           4.5981   -4.9346    0.0000 H       1  UNL1        0.0648
     50 H           4.2690   -4.7446    0.0000 H       1  UNL1        0.0647
     51 H           6.0010   -4.7446    0.0000 H       1  UNL1        0.0683
     52 H           4.2690   -2.5046    0.0000 H       1  UNL1        0.0647
     53 H          12.4875    3.8980    0.0000 H       1  UNL1        0.0584
     54 H          11.6904    3.9011    0.0000 H       1  UNL1        0.0584
     55 H           6.0010   -2.5046    0.0000 H       1  UNL1        0.1084
     56 H           8.6129    0.8180    0.0000 H       1  UNL1        0.2100
     57 H          10.8792    0.1192    0.0000 H       1  UNL1        0.2100
     58 H          12.0770    0.8046    0.0000 H       1  UNL1        0.2100
     59 H           3.8015   -2.1496    0.0000 H       1  UNL1        0.0584
     60 H           3.0044   -2.1496    0.0000 H       1  UNL1        0.0584
     61 H           7.7652    5.5612    0.0000 H       1  UNL1        0.0691
     62 H           5.6720   -5.9346    0.0000 H       1  UNL1        0.2100
     63 H           3.4030   -5.2446    0.0000 H       1  UNL1        0.2100
     64 H           7.4040   -4.3146    0.0000 H       1  UNL1        0.2102
     65 H          13.4893    3.2292    0.0000 H       1  UNL1        0.2095
     66 H           5.4277    1.5939    0.0000 H       1  UNL1        0.0693
     67 H           2.0000   -2.8146    0.0000 H       1  UNL1        0.2095
     68 H           8.2700   -1.4346    0.0000 H       1  UNL1        0.0654
     69 H           5.4641   -1.4346    0.0000 H       1  UNL1        0.0654
     70 H           8.2700    0.1854    0.0000 H       1  UNL1        0.0626
     71 H           5.4641    0.1854    0.0000 H       1  UNL1        0.0626
     72 H          10.1187    5.9322    0.0000 H       1  UNL1        0.0660
     73 H           9.5011    6.5546    0.0000 H       1  UNL1        0.0660
     74 H           8.8787    5.9370    0.0000 H       1  UNL1        0.0660
     75 H           6.0331    5.5679    0.0000 H       1  UNL1        0.2922
@<TRIPOS>BOND
     1     1    18    1
     2     1    20    1
     3     2    25    1
     4     2    27    1
     5     3    16    1
     6     3    56    1
     7    17     4    1
     8     4    57    1
     9    19     5    1
    10     5    58    1
    11    27     6    1
    12     6    36    1
    13     7    22    1
    14     7    62    1
    15    23     8    1
    16     8    63    1
    17     9    24    1
    18     9    64    1
    19    10    28   ar
    20    10    34   ar
    21    11    26    1
    22    11    65    1
    23    12    29    1
    24    12    43    1
    25    13    30    1
    26    13    67    1
    27    14    33    1
    28    14    75    1
    29    15    35    2
    30    16    17    1
    31    16    18    1
    32    16    44    1
    33    17    19    1
    34    17    45    1
    35    18    21    1
    36    18    46    1
    37    19    20    1
    38    19    47    1
    39    20    26    1
    40    20    48    1
    41    21    28   ar
    42    21    29   ar
    43    22    23    1
    44    22    24    1
    45    22    49    1
    46    23    25    1
    47    23    50    1
    48    24    27    1
    49    24    51    1
    50    25    30    1
    51    25    52    1
    52    26    53    1
    53    26    54    1
    54    27    55    1
    55    28    31   ar
    56    29    32   ar
    57    30    59    1
    58    30    60    1
    59    31    33   ar
    60    31    35   ar
    61    32    33   ar
    62    32    61    1
    63    34    37   ar
    64    34    38    1
    65    35    37   ar
    66    36    39   ar
    67    36    40   ar
    68    37    66    1
    69    38    41   ar
    70    38    42   ar
    71    39    41   ar
    72    39    68    1
    73    40    42   ar
    74    40    69    1
    75    41    70    1
    76    42    71    1
    77    43    72    1
    78    43    73    1
    79    43    74    1
