@<TRIPOS>MOLECULE
IMPHY004144
 79 82 0 0 0
SMALL
GASTEIGER

@<TRIPOS>ATOM
      1 O           7.9506   -3.6389    0.0000 O.2     1  UNL1       -0.2924
      2 O           2.5357   -3.6598    0.0000 O.3     1  UNL1       -0.3915
      3 C           7.9288   -0.6074    0.0000 C.3     1  UNL1       -0.0255
      4 C           7.9288   -1.6074    0.0000 C.3     1  UNL1       -0.0253
      5 C           7.0628   -2.1074    0.0000 C.3     1  UNL1        0.0285
      6 C           8.8750   -0.3027    0.0000 C.3     1  UNL1       -0.0328
      7 C           6.1968   -1.6074    0.0000 C.3     1  UNL1       -0.0218
      8 C           7.0628   -0.1074    0.0000 C.3     1  UNL1       -0.0468
      9 C           8.8750   -1.9122    0.0000 C.3     1  UNL1       -0.0488
     10 C           5.2868   -2.1143    0.0000 C.3     1  UNL1       -0.0070
     11 C           6.1968   -0.6074    0.0000 C.3     1  UNL1       -0.0483
     12 C           9.4586   -1.1074    0.0000 C.3     1  UNL1       -0.0492
     13 C           9.1857    0.6478    0.0000 C.3     1  UNL1       -0.0405
     14 C           7.9288    0.3926    0.0000 C.3     1  UNL1       -0.0590
     15 C           7.0789   -3.1489    0.0000 C.2     1  UNL1        0.1597
     16 C           5.2787   -3.1559    0.0000 C.2     1  UNL1       -0.0576
     17 C           4.3599   -1.5502    0.0000 C.3     1  UNL1       -0.0413
     18 C           5.2945   -1.1143    0.0000 C.3     1  UNL1       -0.0556
     19 C           6.1808   -3.6767    0.0000 C.2     1  UNL1       -0.0191
     20 C          10.1642    0.8540    0.0000 C.3     1  UNL1       -0.0499
     21 C           4.3433   -3.7056    0.0000 C.3     1  UNL1       -0.0047
     22 C           3.4120   -2.0781    0.0000 C.3     1  UNL1       -0.0258
     23 C           8.5179    1.3921    0.0000 C.3     1  UNL1       -0.0621
     24 C           3.4037   -3.1631    0.0000 C.3     1  UNL1        0.0590
     25 C          10.4749    1.8046    0.0000 C.3     1  UNL1       -0.0497
     26 C          11.4534    2.0108    0.0000 C.3     1  UNL1       -0.0389
     27 C          11.7640    2.9613    0.0000 C.3     1  UNL1       -0.0439
     28 C          12.1212    1.2665    0.0000 C.3     1  UNL1       -0.0528
     29 C          12.7425    3.1675    0.0000 C.3     1  UNL1       -0.0624
     30 C          11.0962    3.7056    0.0000 C.3     1  UNL1       -0.0624
     31 C          13.0997    1.4727    0.0000 C.3     1  UNL1       -0.0650
     32 H           8.0045   -2.3671    0.0000 H       1  UNL1        0.0313
     33 H           6.4189   -2.5176    0.0000 H       1  UNL1        0.0386
     34 H           8.3395    0.2415    0.0000 H       1  UNL1        0.0309
     35 H           6.1635   -2.3701    0.0000 H       1  UNL1        0.0316
     36 H           6.6811    0.5538    0.0000 H       1  UNL1        0.0271
     37 H           7.4445    0.5538    0.0000 H       1  UNL1        0.0271
     38 H           9.4432   -2.4221    0.0000 H       1  UNL1        0.0268
     39 H           8.7175   -2.6592    0.0000 H       1  UNL1        0.0268
     40 H           5.4334   -0.6074    0.0000 H       1  UNL1        0.0269
     41 H           5.8151    0.0538    0.0000 H       1  UNL1        0.0269
     42 H          10.1197   -0.7256    0.0000 H       1  UNL1        0.0268
     43 H          10.1198   -1.4891    0.0000 H       1  UNL1        0.0268
     44 H           9.6955    0.0796    0.0000 H       1  UNL1        0.0301
     45 H           8.5900    0.7743    0.0000 H       1  UNL1        0.0235
     46 H           7.9288    1.1560    0.0000 H       1  UNL1        0.0235
     47 H           7.2676    0.7743    0.0000 H       1  UNL1        0.0235
     48 H           3.9910   -0.8818    0.0000 H       1  UNL1        0.0274
     49 H           4.7543   -0.8965    0.0000 H       1  UNL1        0.0274
     50 H           5.9586   -0.7377    0.0000 H       1  UNL1        0.0238
     51 H           5.3004   -0.3509    0.0000 H       1  UNL1        0.0238
     52 H           4.6363   -0.7275    0.0000 H       1  UNL1        0.0238
     53 H           6.1837   -4.4401    0.0000 H       1  UNL1        0.0652
     54 H          10.8898    0.6168    0.0000 H       1  UNL1        0.0268
     55 H          10.3216    0.1069    0.0000 H       1  UNL1        0.0268
     56 H           4.7276   -4.3653    0.0000 H       1  UNL1        0.0335
     57 H           3.9641   -4.3682    0.0000 H       1  UNL1        0.0335
     58 H           2.6486   -2.0692    0.0000 H       1  UNL1        0.0290
     59 H           3.0380   -1.4126    0.0000 H       1  UNL1        0.0290
     60 H           8.7551    2.1178    0.0000 H       1  UNL1        0.0233
     61 H           8.0081    1.9603    0.0000 H       1  UNL1        0.0233
     62 H           7.7709    1.2347    0.0000 H       1  UNL1        0.0233
     63 H           3.4562   -3.9247    0.0000 H       1  UNL1        0.0596
     64 H           9.7493    2.0418    0.0000 H       1  UNL1        0.0268
     65 H          10.3175    2.5517    0.0000 H       1  UNL1        0.0268
     66 H          12.2004    2.1682    0.0000 H       1  UNL1        0.0303
     67 H           1.8731   -4.0390    0.0000 H       1  UNL1        0.2098
     68 H          11.0170    2.8039    0.0000 H       1  UNL1        0.0298
     69 H          12.2786    0.5195    0.0000 H       1  UNL1        0.0265
     70 H          11.5529    0.7567    0.0000 H       1  UNL1        0.0265
     71 H          13.2524    2.5993    0.0000 H       1  UNL1        0.0232
     72 H          13.4895    3.3249    0.0000 H       1  UNL1        0.0232
     73 H          12.9797    3.8932    0.0000 H       1  UNL1        0.0232
     74 H          11.3334    4.4313    0.0000 H       1  UNL1        0.0232
     75 H          10.5864    4.2738    0.0000 H       1  UNL1        0.0232
     76 H          10.3492    3.5482    0.0000 H       1  UNL1        0.0232
     77 H          13.6096    0.9045    0.0000 H       1  UNL1        0.0230
     78 H          13.8467    1.6301    0.0000 H       1  UNL1        0.0230
     79 H          13.3369    2.1984    0.0000 H       1  UNL1        0.0230
@<TRIPOS>BOND
     1     1    15    2
     2     2    24    1
     3     2    67    1
     4     3     4    1
     5     3     6    1
     6     3     8    1
     7     3    14    1
     8     4     5    1
     9     4     9    1
    10     4    32    1
    11     5     7    1
    12     5    15    1
    13     5    33    1
    14     6    12    1
    15     6    13    1
    16     6    34    1
    17     7    10    1
    18     7    11    1
    19     7    35    1
    20     8    11    1
    21     8    36    1
    22     8    37    1
    23     9    12    1
    24     9    38    1
    25     9    39    1
    26    10    16    1
    27    10    17    1
    28    10    18    1
    29    11    40    1
    30    11    41    1
    31    12    42    1
    32    12    43    1
    33    13    20    1
    34    13    23    1
    35    13    44    1
    36    14    45    1
    37    14    46    1
    38    14    47    1
    39    15    19    1
    40    16    19    2
    41    16    21    1
    42    17    22    1
    43    17    48    1
    44    17    49    1
    45    18    50    1
    46    18    51    1
    47    18    52    1
    48    19    53    1
    49    20    25    1
    50    20    54    1
    51    20    55    1
    52    21    24    1
    53    21    56    1
    54    21    57    1
    55    22    24    1
    56    22    58    1
    57    22    59    1
    58    23    60    1
    59    23    61    1
    60    23    62    1
    61    24    63    1
    62    25    26    1
    63    25    64    1
    64    25    65    1
    65    26    27    1
    66    26    28    1
    67    26    66    1
    68    27    29    1
    69    27    30    1
    70    27    68    1
    71    28    31    1
    72    28    69    1
    73    28    70    1
    74    29    71    1
    75    29    72    1
    76    29    73    1
    77    30    74    1
    78    30    75    1
    79    30    76    1
    80    31    77    1
    81    31    78    1
    82    31    79    1
