@<TRIPOS>MOLECULE
IMPHY003134
 70 75 0 0 0
SMALL
GASTEIGER

@<TRIPOS>ATOM
      1 O          11.0346   -0.0173    0.0000 O.3     1  UNL1       -0.4641
      2 O           6.8671   -2.0038    0.0000 O.3     1  UNL1       -0.4567
      3 O           5.1350   -2.0038    0.0000 O.3     1  UNL1       -0.3313
      4 O          10.7819    1.7410    0.0000 O.2     1  UNL1       -0.2505
      5 O           4.9778   -0.7856    0.0000 O.3     1  UNL1       -0.4489
      6 O           4.9972    0.8908    0.0000 O.3     1  UNL1       -0.4525
      7 O           6.8671   -4.0038    0.0000 O.3     1  UNL1       -0.3829
      8 O           5.1350   -5.0038    0.0000 O.3     1  UNL1       -0.3864
      9 O           3.4030   -4.0038    0.0000 O.3     1  UNL1       -0.3865
     10 O           6.9532    4.0302    0.0000 O.3     1  UNL1       -0.4913
     11 O          10.4171    3.9901    0.0000 O.3     1  UNL1       -0.4913
     12 O           2.5369   -2.5038    0.0000 O.3     1  UNL1       -0.3924
     13 O           8.6967    5.0101    0.0000 O.3     1  UNL1       -0.5009
     14 C           9.5106    0.5004    0.0000 C.3     1  UNL1        0.0734
     15 C           9.4991   -0.4996    0.0000 C.3     1  UNL1        0.0112
     16 C           8.6504    1.0103    0.0000 C.3     1  UNL1        0.0232
     17 C           8.6273   -0.9895    0.0000 C.3     1  UNL1       -0.0171
     18 C           7.7787    0.5204    0.0000 C.ar    1  UNL1       -0.0288
     19 C           7.7671   -0.4796    0.0000 C.ar    1  UNL1        0.0025
     20 C          10.4417   -0.8152    0.0000 C.3     1  UNL1        0.0964
     21 C          10.4603    0.7941    0.0000 C.2     1  UNL1        0.3115
     22 C           8.6620    2.0103    0.0000 C.ar    1  UNL1       -0.0320
     23 C           6.8671   -1.0038    0.0000 C.ar    1  UNL1        0.1726
     24 C           6.8910    1.0654    0.0000 C.ar    1  UNL1       -0.0119
     25 C           5.9670   -0.4796    0.0000 C.ar    1  UNL1        0.2079
     26 C           5.9790    0.5620    0.0000 C.ar    1  UNL1        0.1702
     27 C           6.0010   -2.5038    0.0000 C.3     1  UNL1        0.2310
     28 C           6.0010   -3.5038    0.0000 C.3     1  UNL1        0.1454
     29 C           5.1350   -4.0038    0.0000 C.3     1  UNL1        0.1152
     30 C           9.5338    2.5002    0.0000 C.ar    1  UNL1       -0.0123
     31 C           7.8018    2.5202    0.0000 C.ar    1  UNL1       -0.0123
     32 C           4.2690   -3.5038    0.0000 C.3     1  UNL1        0.1120
     33 C           4.2690   -2.5038    0.0000 C.3     1  UNL1        0.1140
     34 C           7.8134    3.5202    0.0000 C.ar    1  UNL1        0.1653
     35 C           9.5453    3.5002    0.0000 C.ar    1  UNL1        0.1653
     36 C           4.3796    0.0597    0.0000 C.3     1  UNL1        0.2334
     37 C           3.4030   -2.0038    0.0000 C.3     1  UNL1        0.0731
     38 C           8.6851    4.0101    0.0000 C.ar    1  UNL1        0.2010
     39 C           6.9648    5.0301    0.0000 C.3     1  UNL1        0.0790
     40 C          11.2773    3.4801    0.0000 C.3     1  UNL1        0.0790
     41 H           9.5834    1.1161    0.0000 H       1  UNL1        0.0427
     42 H           9.5575   -1.1168    0.0000 H       1  UNL1        0.0345
     43 H           9.1909    1.3141    0.0000 H       1  UNL1        0.0405
     44 H           8.2233   -1.4598    0.0000 H       1  UNL1        0.0318
     45 H           9.0203   -1.4690    0.0000 H       1  UNL1        0.0318
     46 H          10.1841   -1.3792    0.0000 H       1  UNL1        0.0700
     47 H          10.9755   -1.1306    0.0000 H       1  UNL1        0.0700
     48 H           6.9053    1.6852    0.0000 H       1  UNL1        0.0658
     49 H           6.0010   -1.8838    0.0000 H       1  UNL1        0.1084
     50 H           6.0010   -4.1238    0.0000 H       1  UNL1        0.0683
     51 H           4.5981   -4.3138    0.0000 H       1  UNL1        0.0648
     52 H           3.7320   -3.1938    0.0000 H       1  UNL1        0.0647
     53 H          10.0671    2.1840    0.0000 H       1  UNL1        0.0658
     54 H           7.2613    2.2165    0.0000 H       1  UNL1        0.0658
     55 H           4.2690   -1.8838    0.0000 H       1  UNL1        0.0647
     56 H           3.9236    0.4797    0.0000 H       1  UNL1        0.1166
     57 H           3.9140   -0.3497    0.0000 H       1  UNL1        0.1166
     58 H           3.8015   -1.5289    0.0000 H       1  UNL1        0.0584
     59 H           3.0044   -1.5289    0.0000 H       1  UNL1        0.0584
     60 H           6.8671   -4.6238    0.0000 H       1  UNL1        0.2102
     61 H           4.5981   -5.3138    0.0000 H       1  UNL1        0.2100
     62 H           3.4030   -4.6238    0.0000 H       1  UNL1        0.2100
     63 H           2.0000   -2.1938    0.0000 H       1  UNL1        0.2095
     64 H           9.2372    5.3138    0.0000 H       1  UNL1        0.2924
     65 H           7.5847    5.0229    0.0000 H       1  UNL1        0.0660
     66 H           6.9719    5.6500    0.0000 H       1  UNL1        0.0660
     67 H           6.3448    5.0373    0.0000 H       1  UNL1        0.0660
     68 H          10.9611    2.9468    0.0000 H       1  UNL1        0.0660
     69 H          11.8106    3.1639    0.0000 H       1  UNL1        0.0660
     70 H          11.5934    4.0134    0.0000 H       1  UNL1        0.0660
@<TRIPOS>BOND
     1     1    20    1
     2     1    21    1
     3     2    23    1
     4     2    27    1
     5     3    27    1
     6     3    33    1
     7     4    21    2
     8     5    25    1
     9     5    36    1
    10     6    26    1
    11     6    36    1
    12     7    28    1
    13     7    60    1
    14     8    29    1
    15     8    61    1
    16     9    32    1
    17     9    62    1
    18    10    34    1
    19    10    39    1
    20    11    35    1
    21    11    40    1
    22    12    37    1
    23    12    63    1
    24    13    38    1
    25    13    64    1
    26    14    15    1
    27    14    16    1
    28    14    21    1
    29    14    41    1
    30    15    17    1
    31    15    20    1
    32    15    42    1
    33    16    18    1
    34    16    22    1
    35    16    43    1
    36    17    19    1
    37    17    44    1
    38    17    45    1
    39    18    19   ar
    40    18    24   ar
    41    19    23   ar
    42    20    46    1
    43    20    47    1
    44    22    30   ar
    45    22    31   ar
    46    23    25   ar
    47    24    26   ar
    48    24    48    1
    49    25    26   ar
    50    27    28    1
    51    27    49    1
    52    28    29    1
    53    28    50    1
    54    29    32    1
    55    29    51    1
    56    30    35   ar
    57    30    53    1
    58    31    34   ar
    59    31    54    1
    60    32    33    1
    61    32    52    1
    62    33    37    1
    63    33    55    1
    64    34    38   ar
    65    35    38   ar
    66    36    56    1
    67    36    57    1
    68    37    58    1
    69    37    59    1
    70    39    65    1
    71    39    66    1
    72    39    67    1
    73    40    68    1
    74    40    69    1
    75    40    70    1
