@<TRIPOS>MOLECULE
IMPHY012118
 15 15 0 0 0
SMALL
GASTEIGER

@<TRIPOS>ATOM
      1 O           5.1906    0.2797    0.0000 O.3     1  UNL1       -0.5032
      2 O           4.3802   -1.4031    0.0000 O.2     1  UNL1       -0.2840
      3 C           4.1906    0.2797    0.0000 C.ar    1  UNL1        0.1635
      4 C           3.7568   -0.6213    0.0000 C.ar    1  UNL1        0.2200
      5 C           3.7568    1.1806    0.0000 C.ar    1  UNL1       -0.0163
      6 C           2.7818   -0.8438    0.0000 C.ar    1  UNL1       -0.0113
      7 C           2.7818    1.4031    0.0000 C.ar    1  UNL1       -0.0582
      8 C           2.0000   -0.2203    0.0000 C.ar    1  UNL1       -0.0580
      9 C           2.0000    0.7797    0.0000 C.ar    1  UNL1       -0.0615
     10 H           4.1433    1.6654    0.0000 H       1  UNL1        0.0655
     11 H           2.6439   -1.4483    0.0000 H       1  UNL1        0.0657
     12 H           2.6439    2.0076    0.0000 H       1  UNL1        0.0619
     13 H           1.4414   -0.4894    0.0000 H       1  UNL1        0.0619
     14 H           1.4414    1.0487    0.0000 H       1  UNL1        0.0618
     15 H           5.5006    0.8166    0.0000 H       1  UNL1        0.2923
@<TRIPOS>BOND
     1     1     3    1
     2     1    15    1
     3     2     4    2
     4     3     4   ar
     5     3     5   ar
     6     4     6   ar
     7     5     7   ar
     8     5    10    1
     9     6     8   ar
    10     6    11    1
    11     7     9   ar
    12     7    12    1
    13     8     9   ar
    14     8    13    1
    15     9    14    1
