@<TRIPOS>MOLECULE
IMPHY014299
 35 37 0 0 0
SMALL
GASTEIGER

@<TRIPOS>ATOM
      1 O           4.6660    2.0000    0.0000 O.3     1  UNL1       -0.4938
      2 O           4.6660   -2.0000    0.0000 O.3     1  UNL1       -0.4938
      3 O           6.4144    2.0346    0.0000 O.2     1  UNL1       -0.2869
      4 O           6.4144   -2.0346    0.0000 O.2     1  UNL1       -0.2871
      5 C           5.5321    0.5000    0.0000 C.ar    1  UNL1        0.0784
      6 C           5.5321   -0.5000    0.0000 C.ar    1  UNL1        0.0782
      7 C           3.8000    0.5000    0.0000 C.ar    1  UNL1        0.0280
      8 C           3.8000   -0.5000    0.0000 C.ar    1  UNL1        0.0280
      9 C           4.6660    1.0000    0.0000 C.ar    1  UNL1        0.1395
     10 C           4.6660   -1.0000    0.0000 C.ar    1  UNL1        0.1395
     11 C           6.4260    1.0347    0.0000 C.2     1  UNL1        0.1934
     12 C           6.4260   -1.0347    0.0000 C.2     1  UNL1        0.1908
     13 C           7.3321    0.5208    0.0000 C.2     1  UNL1        0.0006
     14 C           2.9061    1.0347    0.0000 C.ar    1  UNL1       -0.0504
     15 C           2.9061   -1.0347    0.0000 C.ar    1  UNL1       -0.0504
     16 C           7.3321   -0.5208    0.0000 C.2     1  UNL1       -0.0076
     17 C           2.0000    0.5208    0.0000 C.ar    1  UNL1       -0.0610
     18 C           2.0000   -0.5208    0.0000 C.ar    1  UNL1       -0.0610
     19 C           8.1962    1.0241    0.0000 C.3     1  UNL1       -0.0359
     20 C           3.8000    2.5000    0.0000 C.3     1  UNL1        0.0788
     21 C           3.8000   -2.5000    0.0000 C.3     1  UNL1        0.0788
     22 H           2.9132    1.6546    0.0000 H       1  UNL1        0.0625
     23 H           2.9132   -1.6546    0.0000 H       1  UNL1        0.0625
     24 H           7.8678   -0.8329    0.0000 H       1  UNL1        0.0660
     25 H           1.4643    0.8329    0.0000 H       1  UNL1        0.0618
     26 H           1.4643   -0.8329    0.0000 H       1  UNL1        0.0618
     27 H           8.5082    0.4884    0.0000 H       1  UNL1        0.0279
     28 H           8.7319    1.3362    0.0000 H       1  UNL1        0.0279
     29 H           7.8841    1.5599    0.0000 H       1  UNL1        0.0279
     30 H           4.1100    3.0369    0.0000 H       1  UNL1        0.0660
     31 H           3.2631    2.8100    0.0000 H       1  UNL1        0.0660
     32 H           3.4900    1.9631    0.0000 H       1  UNL1        0.0660
     33 H           3.4900   -1.9631    0.0000 H       1  UNL1        0.0660
     34 H           3.2631   -2.8100    0.0000 H       1  UNL1        0.0660
     35 H           4.1100   -3.0369    0.0000 H       1  UNL1        0.0660
@<TRIPOS>BOND
     1     1     9    1
     2     1    20    1
     3     2    10    1
     4     2    21    1
     5     3    11    2
     6     4    12    2
     7     5     6   ar
     8     5     9   ar
     9     5    11    1
    10     6    10   ar
    11     6    12    1
    12     7     8   ar
    13     7     9   ar
    14     7    14   ar
    15     8    10   ar
    16     8    15   ar
    17    11    13    1
    18    12    16    1
    19    13    16    2
    20    13    19    1
    21    14    17   ar
    22    14    22    1
    23    15    18   ar
    24    15    23    1
    25    16    24    1
    26    17    18   ar
    27    17    25    1
    28    18    26    1
    29    19    27    1
    30    19    28    1
    31    19    29    1
    32    20    30    1
    33    20    31    1
    34    20    32    1
    35    21    33    1
    36    21    34    1
    37    21    35    1
