@<TRIPOS>MOLECULE
IMPHY009450
 81 85 0 0 0
SMALL
GASTEIGER

@<TRIPOS>ATOM
      1 O           9.2556   -1.7506    0.0000 O.3     1  UNL1       -0.3941
      2 O           2.5357   -2.6896    0.0000 O.3     1  UNL1       -0.3912
      3 O          11.4608    0.3969    0.0000 O.3     1  UNL1       -0.3944
      4 C           7.0628   -1.1372    0.0000 C.3     1  UNL1       -0.0170
      5 C           6.1968   -0.6372    0.0000 C.3     1  UNL1       -0.0257
      6 C           7.9288   -0.6372    0.0000 C.3     1  UNL1        0.0208
      7 C           5.2868   -1.1441    0.0000 C.3     1  UNL1       -0.0250
      8 C           5.2787   -2.1857    0.0000 C.3     1  UNL1       -0.0278
      9 C           7.0789   -2.1788    0.0000 C.3     1  UNL1       -0.0462
     10 C           7.9288    0.3628    0.0000 C.2     1  UNL1       -0.0603
     11 C           8.8228    0.8974    0.0000 C.3     1  UNL1       -0.0051
     12 C           9.7288    0.3836    0.0000 C.3     1  UNL1        0.0010
     13 C           6.1808   -2.7065    0.0000 C.3     1  UNL1       -0.0486
     14 C           8.8228   -1.1719    0.0000 C.3     1  UNL1       -0.0405
     15 C           4.3433   -2.7354    0.0000 C.3     1  UNL1       -0.0056
     16 C           6.1968    0.3628    0.0000 C.3     1  UNL1       -0.0306
     17 C           4.3599   -0.5800    0.0000 C.3     1  UNL1       -0.0447
     18 C           9.7288   -0.6581    0.0000 C.3     1  UNL1       -0.0438
     19 C           7.7056   -1.9033    0.0000 C.3     1  UNL1       -0.0584
     20 C           9.0329    1.9113    0.0000 C.3     1  UNL1       -0.0133
     21 C           7.0628    0.8628    0.0000 C.2     1  UNL1       -0.0835
     22 C           8.2709   -1.5769    0.0000 C.3     1  UNL1        0.0540
     23 C          10.4911    1.0843    0.0000 C.3     1  UNL1       -0.0442
     24 C           3.4037   -2.1929    0.0000 C.3     1  UNL1        0.0606
     25 C           5.2945   -0.1441    0.0000 C.3     1  UNL1       -0.0590
     26 C           3.4120   -1.1080    0.0000 C.3     1  UNL1       -0.0258
     27 C          10.0619    2.0266    0.0000 C.3     1  UNL1       -0.0454
     28 C          10.5987   -0.1097    0.0000 C.3     1  UNL1        0.0504
     29 C           3.8467   -3.6034    0.0000 C.3     1  UNL1       -0.0572
     30 C           4.8466   -3.5995    0.0000 C.3     1  UNL1       -0.0572
     31 C           8.3593    2.6505    0.0000 C.2     1  UNL1       -0.0760
     32 C           8.6626    3.6034    0.0000 C.3     1  UNL1       -0.0438
     33 C           7.3824    2.4367    0.0000 C.2     1  UNL1       -0.0994
     34 H           6.9329   -0.2122    0.0000 H       1  UNL1        0.0315
     35 H           5.2820   -3.0357    0.0000 H       1  UNL1        0.0312
     36 H           7.2969   -2.7592    0.0000 H       1  UNL1        0.0271
     37 H           7.6880   -2.0632    0.0000 H       1  UNL1        0.0271
     38 H           8.1300    1.3900    0.0000 H       1  UNL1        0.0358
     39 H           5.7835   -3.1825    0.0000 H       1  UNL1        0.0268
     40 H           6.5818   -3.1794    0.0000 H       1  UNL1        0.0268
     41 H           8.4182   -1.6417    0.0000 H       1  UNL1        0.0275
     42 H           9.2164   -1.6509    0.0000 H       1  UNL1        0.0275
     43 H           5.9847    0.9454    0.0000 H       1  UNL1        0.0310
     44 H           5.5862    0.2551    0.0000 H       1  UNL1        0.0310
     45 H           4.7681   -0.1134    0.0000 H       1  UNL1        0.0271
     46 H           3.9700   -0.0980    0.0000 H       1  UNL1        0.0271
     47 H           9.9379   -1.2418    0.0000 H       1  UNL1        0.0272
     48 H          10.3397   -0.5520    0.0000 H       1  UNL1        0.0272
     49 H           7.2306   -2.3018    0.0000 H       1  UNL1        0.0235
     50 H           8.1041   -2.3782    0.0000 H       1  UNL1        0.0235
     51 H           8.1805   -1.5048    0.0000 H       1  UNL1        0.0235
     52 H           9.2513    2.4916    0.0000 H       1  UNL1        0.0351
     53 H           7.0628    1.4828    0.0000 H       1  UNL1        0.0572
     54 H           7.6604   -1.6846    0.0000 H       1  UNL1        0.0566
     55 H           8.2709   -2.1969    0.0000 H       1  UNL1        0.0566
     56 H          10.8604    0.5863    0.0000 H       1  UNL1        0.0272
     57 H          11.0252    1.3992    0.0000 H       1  UNL1        0.0272
     58 H           3.4025   -2.8129    0.0000 H       1  UNL1        0.0599
     59 H           5.9145   -0.1489    0.0000 H       1  UNL1        0.0235
     60 H           5.2993    0.4759    0.0000 H       1  UNL1        0.0235
     61 H           4.6745   -0.1393    0.0000 H       1  UNL1        0.0235
     62 H           3.2075   -0.5227    0.0000 H       1  UNL1        0.0290
     63 H           2.8004   -1.2093    0.0000 H       1  UNL1        0.0290
     64 H          10.6500    2.2229    0.0000 H       1  UNL1        0.0271
     65 H           9.9285    2.6321    0.0000 H       1  UNL1        0.0271
     66 H          10.2038   -0.5877    0.0000 H       1  UNL1        0.0563
     67 H          11.0009   -0.5816    0.0000 H       1  UNL1        0.0563
     68 H           3.3085   -3.2954    0.0000 H       1  UNL1        0.0236
     69 H           3.5387   -4.1415    0.0000 H       1  UNL1        0.0236
     70 H           4.3848   -3.9113    0.0000 H       1  UNL1        0.0236
     71 H           4.3109   -3.9116    0.0000 H       1  UNL1        0.0236
     72 H           5.1587   -4.1352    0.0000 H       1  UNL1        0.0236
     73 H           5.3824   -3.2874    0.0000 H       1  UNL1        0.0236
     74 H           9.4677   -2.3332    0.0000 H       1  UNL1        0.2094
     75 H           2.0000   -2.3775    0.0000 H       1  UNL1        0.2098
     76 H          12.0001    0.0911    0.0000 H       1  UNL1        0.2094
     77 H           9.2534    3.4153    0.0000 H       1  UNL1        0.0274
     78 H           8.8507    4.1941    0.0000 H       1  UNL1        0.0274
     79 H           8.0718    3.7914    0.0000 H       1  UNL1        0.0274
     80 H           6.9648    2.8950    0.0000 H       1  UNL1        0.0534
     81 H           7.1944    1.8459    0.0000 H       1  UNL1        0.0534
@<TRIPOS>BOND
     1     1    22    1
     2     1    74    1
     3    24     2    1
     4     2    75    1
     5     3    28    1
     6     3    76    1
     7     4     5    1
     8     4     6    1
     9     4     9    1
    10     4    19    1
    11     5     7    1
    12     5    16    1
    13     5    34    1
    14     6    10    1
    15     6    14    1
    16     6    22    1
    17     7     8    1
    18     7    17    1
    19     7    25    1
    20     8    13    1
    21     8    15    1
    22     8    35    1
    23     9    13    1
    24     9    36    1
    25     9    37    1
    26    10    11    1
    27    10    21    2
    28    11    12    1
    29    11    20    1
    30    11    38    1
    31    12    18    1
    32    12    23    1
    33    12    28    1
    34    13    39    1
    35    13    40    1
    36    14    18    1
    37    14    41    1
    38    14    42    1
    39    15    24    1
    40    15    29    1
    41    15    30    1
    42    16    21    1
    43    16    43    1
    44    16    44    1
    45    17    26    1
    46    17    45    1
    47    17    46    1
    48    18    47    1
    49    18    48    1
    50    19    49    1
    51    19    50    1
    52    19    51    1
    53    20    27    1
    54    20    31    1
    55    20    52    1
    56    21    53    1
    57    22    54    1
    58    22    55    1
    59    23    27    1
    60    23    56    1
    61    23    57    1
    62    24    26    1
    63    24    58    1
    64    25    59    1
    65    25    60    1
    66    25    61    1
    67    26    62    1
    68    26    63    1
    69    27    64    1
    70    27    65    1
    71    28    66    1
    72    28    67    1
    73    29    68    1
    74    29    69    1
    75    29    70    1
    76    30    71    1
    77    30    72    1
    78    30    73    1
    79    31    32    1
    80    31    33    2
    81    32    77    1
    82    32    78    1
    83    32    79    1
    84    33    80    1
    85    33    81    1
