@<TRIPOS>MOLECULE
IMPHY014102
 56 59 0 0 0
SMALL
GASTEIGER

@<TRIPOS>ATOM
      1 O           5.4641   -1.8696    0.0000 O.3     1  UNL1       -0.3221
      2 O           7.1962   -1.8696    0.0000 O.3     1  UNL1       -0.4606
      3 O           5.4641   -4.8696    0.0000 O.3     1  UNL1       -0.3863
      4 O           3.7320   -3.8696    0.0000 O.3     1  UNL1       -0.3860
      5 O           7.1962   -3.8696    0.0000 O.3     1  UNL1       -0.3829
      6 O           2.8660   -2.3696    0.0000 O.3     1  UNL1       -0.4661
      7 O           3.7320   -0.8696    0.0000 O.2     1  UNL1       -0.2478
      8 O           8.9521    1.1930    0.0000 O.2     1  UNL1       -0.4544
      9 O           5.4499    1.2096    0.0000 O.3     1  UNL1       -0.5058
     10 O           6.3598    2.7030    0.0000 O.2     1  UNL1       -0.2869
     11 O          12.4278    4.1796    0.0000 O.3     1  UNL1       -0.4951
     12 C           5.4641   -3.8696    0.0000 C.3     1  UNL1        0.1157
     13 C           4.5981   -3.3696    0.0000 C.3     1  UNL1        0.1202
     14 C           6.3301   -3.3696    0.0000 C.3     1  UNL1        0.1455
     15 C           4.5981   -2.3696    0.0000 C.3     1  UNL1        0.1871
     16 C           6.3301   -2.3696    0.0000 C.3     1  UNL1        0.2312
     17 C           3.7320   -1.8696    0.0000 C.2     1  UNL1        0.3388
     18 C           7.1962   -0.8696    0.0000 C.ar    1  UNL1        0.1310
     19 C           8.0962   -0.3453    0.0000 C.ar    1  UNL1        0.0235
     20 C           6.2961   -0.3453    0.0000 C.ar    1  UNL1        0.0226
     21 C           8.0842    0.6963    0.0000 C.ar    1  UNL1        0.1462
     22 C           7.2201    1.1996    0.0000 C.ar    1  UNL1        0.1055
     23 C           6.3081    0.6963    0.0000 C.ar    1  UNL1        0.1347
     24 C           2.0000   -1.8696    0.0000 C.3     1  UNL1        0.0817
     25 C           7.2239    2.1996    0.0000 C.ar    1  UNL1        0.1966
     26 C           8.9560    2.1929    0.0000 C.ar    1  UNL1        0.1392
     27 C           8.0919    2.6963    0.0000 C.ar    1  UNL1        0.0288
     28 C           9.8239    2.6896    0.0000 C.ar    1  UNL1        0.0176
     29 C           9.8278    3.6896    0.0000 C.ar    1  UNL1       -0.0476
     30 C          10.6880    2.1863    0.0000 C.ar    1  UNL1       -0.0476
     31 C          10.6957    4.1862    0.0000 C.ar    1  UNL1       -0.0193
     32 C          11.5560    2.6829    0.0000 C.ar    1  UNL1       -0.0193
     33 C          11.5598    3.6829    0.0000 C.ar    1  UNL1        0.1201
     34 C          12.4316    5.1796    0.0000 C.3     1  UNL1        0.0788
     35 H           4.9272   -4.1796    0.0000 H       1  UNL1        0.0648
     36 H           4.0611   -3.0596    0.0000 H       1  UNL1        0.0652
     37 H           6.3301   -3.9896    0.0000 H       1  UNL1        0.0683
     38 H           4.5981   -1.7496    0.0000 H       1  UNL1        0.0742
     39 H           6.8671   -2.6796    0.0000 H       1  UNL1        0.1084
     40 H           6.0010   -5.1796    0.0000 H       1  UNL1        0.2100
     41 H           3.7320   -4.4896    0.0000 H       1  UNL1        0.2100
     42 H           7.7331   -3.5596    0.0000 H       1  UNL1        0.2102
     43 H           8.6355   -0.6511    0.0000 H       1  UNL1        0.0691
     44 H           5.7568   -0.6511    0.0000 H       1  UNL1        0.0691
     45 H           2.3100   -1.3326    0.0000 H       1  UNL1        0.0661
     46 H           1.4631   -1.5596    0.0000 H       1  UNL1        0.0661
     47 H           1.6900   -2.4065    0.0000 H       1  UNL1        0.0661
     48 H           8.0943    3.3163    0.0000 H       1  UNL1        0.0693
     49 H           4.9083    0.9079    0.0000 H       1  UNL1        0.2922
     50 H           9.2920    4.0017    0.0000 H       1  UNL1        0.0626
     51 H          10.6856    1.5663    0.0000 H       1  UNL1        0.0626
     52 H          10.6981    4.8062    0.0000 H       1  UNL1        0.0654
     53 H          12.0917    2.3708    0.0000 H       1  UNL1        0.0654
     54 H          13.0516    5.1772    0.0000 H       1  UNL1        0.0660
     55 H          12.4340    5.7996    0.0000 H       1  UNL1        0.0660
     56 H          11.8116    5.1819    0.0000 H       1  UNL1        0.0660
@<TRIPOS>BOND
     1     1    15    1
     2     1    16    1
     3     2    16    1
     4     2    18    1
     5    12     3    1
     6     3    40    1
     7    13     4    1
     8     4    41    1
     9    14     5    1
    10     5    42    1
    11     6    17    1
    12     6    24    1
    13     7    17    2
    14     8    21   ar
    15     8    26   ar
    16     9    23    1
    17     9    49    1
    18    10    25    2
    19    11    33    1
    20    11    34    1
    21    12    13    1
    22    12    14    1
    23    12    35    1
    24    13    15    1
    25    13    36    1
    26    14    16    1
    27    14    37    1
    28    15    17    1
    29    15    38    1
    30    16    39    1
    31    18    19   ar
    32    18    20   ar
    33    19    21   ar
    34    19    43    1
    35    20    23   ar
    36    20    44    1
    37    21    22   ar
    38    22    23   ar
    39    22    25   ar
    40    24    45    1
    41    24    46    1
    42    24    47    1
    43    25    27   ar
    44    26    27   ar
    45    26    28    1
    46    27    48    1
    47    28    29   ar
    48    28    30   ar
    49    29    31   ar
    50    29    50    1
    51    30    32   ar
    52    30    51    1
    53    31    33   ar
    54    31    52    1
    55    32    33   ar
    56    32    53    1
    57    34    54    1
    58    34    55    1
    59    34    56    1
