@<TRIPOS>MOLECULE
IMPHY005873
 29 31 0 0 0
SMALL
GASTEIGER

@<TRIPOS>ATOM
      1 O           6.0682   -0.9031    0.0000 O.2     1  UNL1       -0.4507
      2 O           4.3198   -1.9377    0.0000 O.3     1  UNL1       -0.4885
      3 O           6.0682    2.0969    0.0000 O.2     1  UNL1       -0.2863
      4 O           7.8167    2.1315    0.0000 O.3     1  UNL1       -0.5059
      5 O           2.5381   -0.9273    0.0000 O.3     1  UNL1       -0.5032
      6 C           5.2022    0.5969    0.0000 C.ar    1  UNL1        0.0686
      7 C           5.2022   -0.4031    0.0000 C.ar    1  UNL1        0.1843
      8 C           6.9343    0.5969    0.0000 C.ar    1  UNL1        0.1058
      9 C           6.9343   -0.4031    0.0000 C.ar    1  UNL1        0.1430
     10 C           6.0682    1.0969    0.0000 C.ar    1  UNL1        0.2038
     11 C           4.3083   -0.9378    0.0000 C.ar    1  UNL1        0.2046
     12 C           4.3083    1.1316    0.0000 C.ar    1  UNL1       -0.0437
     13 C           7.8282    1.1316    0.0000 C.ar    1  UNL1        0.1312
     14 C           3.4022   -0.4239    0.0000 C.ar    1  UNL1        0.1622
     15 C           7.8282   -0.9378    0.0000 C.ar    1  UNL1       -0.0184
     16 C           3.4022    0.6177    0.0000 C.ar    1  UNL1       -0.0156
     17 C           8.7343    0.6177    0.0000 C.ar    1  UNL1       -0.0192
     18 C           8.7343   -0.4239    0.0000 C.ar    1  UNL1       -0.0548
     19 C           3.4597   -2.4477    0.0000 C.3     1  UNL1        0.0791
     20 H           4.3154    1.7515    0.0000 H       1  UNL1        0.0627
     21 H           7.8210   -1.5577    0.0000 H       1  UNL1        0.0654
     22 H           2.8665    0.9298    0.0000 H       1  UNL1        0.0655
     23 H           9.2700    0.9298    0.0000 H       1  UNL1        0.0654
     24 H           9.2700   -0.7360    0.0000 H       1  UNL1        0.0620
     25 H           8.3500    2.4477    0.0000 H       1  UNL1        0.2922
     26 H           2.0000   -0.6193    0.0000 H       1  UNL1        0.2923
     27 H           3.1435   -1.9144    0.0000 H       1  UNL1        0.0660
     28 H           2.9263   -2.7639    0.0000 H       1  UNL1        0.0660
     29 H           3.7758   -2.9810    0.0000 H       1  UNL1        0.0660
@<TRIPOS>BOND
     1     1     7   ar
     2     1     9   ar
     3     2    11    1
     4     2    19    1
     5     3    10    2
     6     4    13    1
     7     4    25    1
     8     5    14    1
     9     5    26    1
    10     6     7   ar
    11     6    10   ar
    12     6    12   ar
    13     7    11   ar
    14     8     9   ar
    15     8    10   ar
    16     8    13   ar
    17     9    15   ar
    18    11    14   ar
    19    12    16   ar
    20    12    20    1
    21    13    17   ar
    22    14    16   ar
    23    15    18   ar
    24    15    21    1
    25    16    22    1
    26    17    18   ar
    27    17    23    1
    28    18    24    1
    29    19    27    1
    30    19    28    1
    31    19    29    1
