@<TRIPOS>MOLECULE
IMPHY015207
 83 86 0 0 0
SMALL
GASTEIGER

@<TRIPOS>ATOM
      1 O          10.1362    0.6680    0.0000 O.3     1  UNL1       -0.3886
      2 O           7.0628    1.2234    0.0000 O.3     1  UNL1       -0.3944
      3 O           2.5357   -3.3289    0.0000 O.3     1  UNL1       -0.3912
      4 C           7.9288   -0.2766    0.0000 C.3     1  UNL1        0.0120
      5 C           7.9288   -1.2766    0.0000 C.3     1  UNL1        0.0013
      6 C           8.8750    0.0282    0.0000 C.3     1  UNL1       -0.0036
      7 C           5.2868   -1.7834    0.0000 C.3     1  UNL1       -0.0033
      8 C           8.8750   -1.5813    0.0000 C.3     1  UNL1       -0.0427
      9 C           7.0628   -1.7766    0.0000 C.2     1  UNL1       -0.0413
     10 C           9.4586   -0.7766    0.0000 C.3     1  UNL1       -0.0462
     11 C           5.2787   -2.8250    0.0000 C.3     1  UNL1       -0.0207
     12 C           7.0628    0.2234    0.0000 C.3     1  UNL1       -0.0253
     13 C           6.1968   -1.2766    0.0000 C.2     1  UNL1       -0.0416
     14 C           9.1857    0.9787    0.0000 C.3     1  UNL1        0.0667
     15 C           4.3433   -3.3747    0.0000 C.3     1  UNL1       -0.0050
     16 C           7.9288    0.7234    0.0000 C.3     1  UNL1        0.0513
     17 C           7.9288   -2.2766    0.0000 C.3     1  UNL1       -0.0549
     18 C           6.1968   -0.2766    0.0000 C.2     1  UNL1       -0.0794
     19 C           4.3599   -1.2193    0.0000 C.3     1  UNL1       -0.0410
     20 C           6.1808   -3.3458    0.0000 C.3     1  UNL1       -0.0300
     21 C           7.0789   -2.8181    0.0000 C.2     1  UNL1       -0.0797
     22 C           3.4037   -2.8322    0.0000 C.3     1  UNL1        0.0607
     23 C           3.4120   -1.7473    0.0000 C.3     1  UNL1       -0.0255
     24 C           5.2945   -0.7834    0.0000 C.3     1  UNL1       -0.0553
     25 C           9.4964    1.9292    0.0000 C.3     1  UNL1       -0.0240
     26 C           8.2352    1.2894    0.0000 C.3     1  UNL1       -0.0358
     27 C           3.8467   -4.2427    0.0000 C.3     1  UNL1       -0.0572
     28 C           4.8466   -4.2388    0.0000 C.3     1  UNL1       -0.0572
     29 C          10.4749    2.1354    0.0000 C.3     1  UNL1       -0.0502
     30 C          10.7855    3.0859    0.0000 C.3     1  UNL1       -0.0506
     31 C          11.7640    3.2922    0.0000 C.3     1  UNL1       -0.0467
     32 C          12.0747    4.2427    0.0000 C.3     1  UNL1       -0.0627
     33 C          12.4319    2.5479    0.0000 C.3     1  UNL1       -0.0627
     34 H           9.7148    0.1600    0.0000 H       1  UNL1        0.0335
     35 H           8.6240   -2.1482    0.0000 H       1  UNL1        0.0274
     36 H           9.4124   -1.8905    0.0000 H       1  UNL1        0.0274
     37 H           9.9195   -1.1913    0.0000 H       1  UNL1        0.0269
     38 H           9.9195   -0.3618    0.0000 H       1  UNL1        0.0269
     39 H           5.2820   -3.6750    0.0000 H       1  UNL1        0.0318
     40 H           7.4613    0.6984    0.0000 H       1  UNL1        0.0314
     41 H           6.6643    0.6984    0.0000 H       1  UNL1        0.0314
     42 H           8.5394    0.6158    0.0000 H       1  UNL1        0.0563
     43 H           8.1409    1.3060    0.0000 H       1  UNL1        0.0563
     44 H           7.3088   -2.2766    0.0000 H       1  UNL1        0.0238
     45 H           7.9288   -2.8966    0.0000 H       1  UNL1        0.0238
     46 H           8.5488   -2.2766    0.0000 H       1  UNL1        0.0238
     47 H           5.6598    0.0334    0.0000 H       1  UNL1        0.0575
     48 H           4.7681   -0.7527    0.0000 H       1  UNL1        0.0275
     49 H           3.9700   -0.7373    0.0000 H       1  UNL1        0.0275
     50 H           5.7835   -3.8218    0.0000 H       1  UNL1        0.0311
     51 H           6.5818   -3.8187    0.0000 H       1  UNL1        0.0311
     52 H           7.6193   -3.1218    0.0000 H       1  UNL1        0.0575
     53 H           3.4025   -3.4522    0.0000 H       1  UNL1        0.0599
     54 H           3.2075   -1.1620    0.0000 H       1  UNL1        0.0290
     55 H           2.8004   -1.8487    0.0000 H       1  UNL1        0.0290
     56 H           5.9145   -0.7882    0.0000 H       1  UNL1        0.0238
     57 H           5.2993   -0.1635    0.0000 H       1  UNL1        0.0238
     58 H           4.6745   -0.7787    0.0000 H       1  UNL1        0.0238
     59 H           9.4758    2.5489    0.0000 H       1  UNL1        0.0293
     60 H           8.8826    2.0166    0.0000 H       1  UNL1        0.0293
     61 H           8.4278    1.8787    0.0000 H       1  UNL1        0.0257
     62 H           7.6459    1.4820    0.0000 H       1  UNL1        0.0257
     63 H           8.0426    0.7000    0.0000 H       1  UNL1        0.0257
     64 H           3.3085   -3.9348    0.0000 H       1  UNL1        0.0236
     65 H           3.5387   -4.7808    0.0000 H       1  UNL1        0.0236
     66 H           4.3848   -4.5506    0.0000 H       1  UNL1        0.0236
     67 H           4.3109   -4.5509    0.0000 H       1  UNL1        0.0236
     68 H           5.1587   -4.7746    0.0000 H       1  UNL1        0.0236
     69 H           5.3824   -3.9268    0.0000 H       1  UNL1        0.0236
     70 H          10.5977    1.0821    0.0000 H       1  UNL1        0.2102
     71 H           7.0628    1.8434    0.0000 H       1  UNL1        0.2094
     72 H          10.4954    1.5158    0.0000 H       1  UNL1        0.0266
     73 H          11.0887    2.0481    0.0000 H       1  UNL1        0.0266
     74 H           2.0000   -3.0168    0.0000 H       1  UNL1        0.2098
     75 H          10.7650    3.7056    0.0000 H       1  UNL1        0.0268
     76 H          10.1717    3.1733    0.0000 H       1  UNL1        0.0268
     77 H          12.3707    3.4200    0.0000 H       1  UNL1        0.0295
     78 H          12.6640    4.0501    0.0000 H       1  UNL1        0.0232
     79 H          12.2673    4.8320    0.0000 H       1  UNL1        0.0232
     80 H          11.4854    4.4353    0.0000 H       1  UNL1        0.0232
     81 H          11.9704    2.1338    0.0000 H       1  UNL1        0.0232
     82 H          12.8459    2.0864    0.0000 H       1  UNL1        0.0232
     83 H          12.8933    2.9619    0.0000 H       1  UNL1        0.0232
@<TRIPOS>BOND
     1    14     1    1
     2     1    70    1
     3     2    16    1
     4     2    71    1
     5    22     3    1
     6     3    74    1
     7     4     5    1
     8     4     6    1
     9     4    12    1
    10     4    16    1
    11     5     8    1
    12     5     9    1
    13     5    17    1
    14     6    10    1
    15     6    14    1
    16     6    34    1
    17     7    11    1
    18     7    13    1
    19     7    19    1
    20     7    24    1
    21     8    10    1
    22     8    35    1
    23     8    36    1
    24     9    13    1
    25     9    21    2
    26    10    37    1
    27    10    38    1
    28    11    15    1
    29    11    20    1
    30    11    39    1
    31    12    18    1
    32    12    40    1
    33    12    41    1
    34    13    18    2
    35    14    25    1
    36    14    26    1
    37    15    22    1
    38    15    27    1
    39    15    28    1
    40    16    42    1
    41    16    43    1
    42    17    44    1
    43    17    45    1
    44    17    46    1
    45    18    47    1
    46    19    23    1
    47    19    48    1
    48    19    49    1
    49    20    21    1
    50    20    50    1
    51    20    51    1
    52    21    52    1
    53    22    23    1
    54    22    53    1
    55    23    54    1
    56    23    55    1
    57    24    56    1
    58    24    57    1
    59    24    58    1
    60    25    29    1
    61    25    59    1
    62    25    60    1
    63    26    61    1
    64    26    62    1
    65    26    63    1
    66    27    64    1
    67    27    65    1
    68    27    66    1
    69    28    67    1
    70    28    68    1
    71    28    69    1
    72    29    30    1
    73    29    72    1
    74    29    73    1
    75    30    31    1
    76    30    75    1
    77    30    76    1
    78    31    32    1
    79    31    33    1
    80    31    77    1
    81    32    78    1
    82    32    79    1
    83    32    80    1
    84    33    81    1
    85    33    82    1
    86    33    83    1
