@<TRIPOS>MOLECULE
IMPHY005591
 55 58 0 0 0
SMALL
GASTEIGER

@<TRIPOS>ATOM
      1 O           5.5141    2.0243    0.0000 O.3     1  UNL1       -0.4808
      2 O           3.7702   -1.0519    0.0000 O.2     1  UNL1       -0.4211
      3 O           7.2622   -1.0172    0.0000 O.3     1  UNL1       -0.4936
      4 O           4.6641   -2.5172    0.0000 O.2     1  UNL1       -0.2868
      5 O           2.0000   -1.0414    0.0000 O.2     1  UNL1       -0.2452
      6 C           6.4121    2.5520    0.0000 C.3     1  UNL1        0.1235
      7 C           5.5301    0.9828    0.0000 C.ar    1  UNL1        0.1436
      8 C           6.3961    0.4828    0.0000 C.ar    1  UNL1        0.0597
      9 C           4.6641    0.4828    0.0000 C.ar    1  UNL1        0.0685
     10 C           7.3142    2.0312    0.0000 C.2     1  UNL1       -0.0408
     11 C           4.6641   -0.5172    0.0000 C.ar    1  UNL1        0.1575
     12 C           6.3961   -0.5172    0.0000 C.ar    1  UNL1        0.1451
     13 C           5.5301   -1.0172    0.0000 C.ar    1  UNL1        0.1071
     14 C           7.3062    0.9896    0.0000 C.2     1  UNL1       -0.0478
     15 C           6.9088    3.4200    0.0000 C.3     1  UNL1       -0.0215
     16 C           5.9088    3.4161    0.0000 C.3     1  UNL1       -0.0215
     17 C           3.7702    1.0174    0.0000 C.ar    1  UNL1        0.0031
     18 C           3.7817    2.0174    0.0000 C.ar    1  UNL1       -0.0169
     19 C           2.8641    0.5036    0.0000 C.ar    1  UNL1        0.0314
     20 C           5.5301   -2.0172    0.0000 C.2     1  UNL1        0.1957
     21 C           2.8641   -0.5380    0.0000 C.ar    1  UNL1        0.3378
     22 C           6.3961   -2.5172    0.0000 C.2     1  UNL1       -0.0071
     23 C           4.6535    2.5073    0.0000 C.ar    1  UNL1       -0.0540
     24 C           2.9215    2.5273    0.0000 C.ar    1  UNL1       -0.0540
     25 C           8.1282   -0.5172    0.0000 C.3     1  UNL1        0.0788
     26 C           7.2622   -2.0172    0.0000 C.3     1  UNL1       -0.0364
     27 C           4.6650    3.5072    0.0000 C.ar    1  UNL1       -0.0612
     28 C           2.9331    3.5273    0.0000 C.ar    1  UNL1       -0.0612
     29 C           6.3961   -3.5172    0.0000 C.2     1  UNL1       -0.0805
     30 C           3.8048    4.0172    0.0000 C.ar    1  UNL1       -0.0617
     31 C           7.2622   -4.0172    0.0000 C.3     1  UNL1       -0.0462
     32 H           7.8523    2.3391    0.0000 H       1  UNL1        0.0611
     33 H           7.8395    0.6734    0.0000 H       1  UNL1        0.0624
     34 H           6.4445    3.7282    0.0000 H       1  UNL1        0.0271
     35 H           5.5967    3.9519    0.0000 H       1  UNL1        0.0271
     36 H           5.3730    3.1040    0.0000 H       1  UNL1        0.0271
     37 H           7.4469    3.1120    0.0000 H       1  UNL1        0.0271
     38 H           7.2167    3.9581    0.0000 H       1  UNL1        0.0271
     39 H           6.3706    3.7279    0.0000 H       1  UNL1        0.0271
     40 H           2.3284    0.8157    0.0000 H       1  UNL1        0.0695
     41 H           5.1868    2.1911    0.0000 H       1  UNL1        0.0624
     42 H           2.3810    2.2236    0.0000 H       1  UNL1        0.0624
     43 H           8.4382   -1.0542    0.0000 H       1  UNL1        0.0660
     44 H           8.6651   -0.2072    0.0000 H       1  UNL1        0.0660
     45 H           7.8182    0.0197    0.0000 H       1  UNL1        0.0660
     46 H           7.5722   -2.5542    0.0000 H       1  UNL1        0.0279
     47 H           7.7991   -1.7072    0.0000 H       1  UNL1        0.0279
     48 H           6.9522   -1.4803    0.0000 H       1  UNL1        0.0279
     49 H           5.2055    3.8110    0.0000 H       1  UNL1        0.0618
     50 H           2.3998    3.8435    0.0000 H       1  UNL1        0.0618
     51 H           5.8592   -3.8272    0.0000 H       1  UNL1        0.0573
     52 H           3.8120    4.6372    0.0000 H       1  UNL1        0.0618
     53 H           6.9522   -4.5542    0.0000 H       1  UNL1        0.0272
     54 H           7.7991   -4.3272    0.0000 H       1  UNL1        0.0272
     55 H           7.5722   -3.4803    0.0000 H       1  UNL1        0.0272
@<TRIPOS>BOND
     1     1     6    1
     2     1     7    1
     3     2    11   ar
     4     2    21   ar
     5     3    12    1
     6     3    25    1
     7     4    20    2
     8     5    21    2
     9     6    10    1
    10     6    15    1
    11     6    16    1
    12     7     8   ar
    13     7     9   ar
    14     8    12   ar
    15     8    14    1
    16     9    11   ar
    17     9    17   ar
    18    10    14    2
    19    10    32    1
    20    11    13   ar
    21    12    13   ar
    22    13    20    1
    23    14    33    1
    24    15    37    1
    25    15    38    1
    26    15    39    1
    27    16    34    1
    28    16    35    1
    29    16    36    1
    30    17    18    1
    31    17    19   ar
    32    18    23   ar
    33    18    24   ar
    34    19    21   ar
    35    19    40    1
    36    20    22    1
    37    22    26    1
    38    22    29    2
    39    23    27   ar
    40    23    41    1
    41    24    28   ar
    42    24    42    1
    43    25    43    1
    44    25    44    1
    45    25    45    1
    46    26    46    1
    47    26    47    1
    48    26    48    1
    49    27    30   ar
    50    27    49    1
    51    28    30   ar
    52    28    50    1
    53    29    31    1
    54    29    51    1
    55    30    52    1
    56    31    53    1
    57    31    54    1
    58    31    55    1
