@<TRIPOS>MOLECULE
IMPHY010559
 21 20 0 0 0
SMALL
GASTEIGER

@<TRIPOS>ATOM
      1 S           2.8660    0.2500    0.0000 S.O     1  UNL1        0.0190
      2 S           8.9282   -0.2500    0.0000 S.2     1  UNL1        0.0203
      3 O           2.8660   -0.7500    0.0000 O.2     1  UNL1       -0.2575
      4 N           7.1962    0.7500    0.0000 N.2     1  UNL1       -0.2346
      5 C           4.5981    0.2500    0.0000 C.3     1  UNL1       -0.0400
      6 C           5.4641    0.7500    0.0000 C.3     1  UNL1       -0.0319
      7 C           3.7320    0.7500    0.0000 C.3     1  UNL1        0.0232
      8 C           6.3301    0.2500    0.0000 C.3     1  UNL1        0.0495
      9 C           2.0000    0.7500    0.0000 C.3     1  UNL1        0.0117
     10 C           8.0622    0.2500    0.0000 C.1     1  UNL1        0.0358
     11 H           4.1996   -0.2249    0.0000 H       1  UNL1        0.0274
     12 H           4.9966   -0.2249    0.0000 H       1  UNL1        0.0274
     13 H           5.8626    1.2250    0.0000 H       1  UNL1        0.0283
     14 H           5.0656    1.2250    0.0000 H       1  UNL1        0.0283
     15 H           4.1306    1.2250    0.0000 H       1  UNL1        0.0401
     16 H           3.3335    1.2250    0.0000 H       1  UNL1        0.0401
     17 H           5.9316   -0.2249    0.0000 H       1  UNL1        0.0516
     18 H           6.7287   -0.2249    0.0000 H       1  UNL1        0.0516
     19 H           2.3100    1.2869    0.0000 H       1  UNL1        0.0365
     20 H           1.4631    1.0600    0.0000 H       1  UNL1        0.0365
     21 H           1.6900    0.2131    0.0000 H       1  UNL1        0.0365
@<TRIPOS>BOND
     1     1     3    2
     2     1     7    1
     3     1     9    1
     4     2    10    2
     5     4     8    1
     6     4    10    2
     7     5     6    1
     8     5     7    1
     9     5    11    1
    10     5    12    1
    11     6     8    1
    12     6    13    1
    13     6    14    1
    14     7    15    1
    15     7    16    1
    16     8    17    1
    17     8    18    1
    18     9    19    1
    19     9    20    1
    20     9    21    1
