@<TRIPOS>MOLECULE
IMPHY004218
 81 85 0 0 0
SMALL
GASTEIGER

@<TRIPOS>ATOM
      1 O           7.9174   -2.5935    0.0000 O.3     1  UNL1       -0.3837
      2 O          10.1248    0.3511    0.0000 O.3     1  UNL1       -0.3860
      3 O           8.8172    2.3566    0.0000 O.3     1  UNL1       -0.3889
      4 O           2.5405   -1.5542    0.0000 O.3     1  UNL1       -0.3892
      5 O           6.1733   -4.6628    0.0000 O.2     1  UNL1       -0.2924
      6 O           2.5244   -3.6458    0.0000 O.3     1  UNL1       -0.3892
      7 O          10.7770    4.3870    0.0000 O.3     1  UNL1       -0.4611
      8 O          12.5375    4.6628    0.0000 O.2     1  UNL1       -0.2505
      9 C           7.9174   -0.5935    0.0000 C.3     1  UNL1        0.0061
     10 C           7.9174   -1.5935    0.0000 C.3     1  UNL1        0.0934
     11 C           8.8637   -0.2888    0.0000 C.3     1  UNL1       -0.0015
     12 C           6.1854   -1.5935    0.0000 C.3     1  UNL1       -0.0107
     13 C           5.2754   -2.1004    0.0000 C.3     1  UNL1       -0.0132
     14 C           7.0514   -0.0935    0.0000 C.3     1  UNL1       -0.0438
     15 C           7.0514   -2.0935    0.0000 C.2     1  UNL1       -0.0310
     16 C           8.8637   -1.8982    0.0000 C.3     1  UNL1       -0.0192
     17 C           9.4473   -1.0935    0.0000 C.3     1  UNL1       -0.0440
     18 C           6.1854   -0.5935    0.0000 C.3     1  UNL1       -0.0453
     19 C           9.1743    0.6617    0.0000 C.3     1  UNL1        0.0924
     20 C           5.2674   -3.1420    0.0000 C.3     1  UNL1        0.0299
     21 C           7.9174    0.4065    0.0000 C.3     1  UNL1       -0.0563
     22 C           4.3486   -1.5363    0.0000 C.3     1  UNL1       -0.0178
     23 C           7.0675   -3.1350    0.0000 C.2     1  UNL1       -0.0167
     24 C           4.3319   -3.6917    0.0000 C.3     1  UNL1       -0.0141
     25 C           5.2831   -1.1004    0.0000 C.3     1  UNL1       -0.0583
     26 C           6.1694   -3.6628    0.0000 C.2     1  UNL1        0.1598
     27 C           9.4850    1.6123    0.0000 C.3     1  UNL1        0.0843
     28 C           3.4007   -2.0642    0.0000 C.3     1  UNL1        0.0816
     29 C           3.3923   -3.1492    0.0000 C.3     1  UNL1        0.0817
     30 C           8.2238    0.9724    0.0000 C.3     1  UNL1       -0.0334
     31 C          10.4635    1.8185    0.0000 C.3     1  UNL1       -0.0172
     32 C          10.7742    2.7690    0.0000 C.3     1  UNL1        0.0109
     33 C          11.7257    3.0764    0.0000 C.3     1  UNL1        0.0599
     34 C          10.1878    3.5790    0.0000 C.3     1  UNL1        0.1039
     35 C          11.7275    4.0764    0.0000 C.2     1  UNL1        0.3106
     36 C          12.5337    2.4872    0.0000 C.3     1  UNL1       -0.0519
     37 C           9.1878    3.5808    0.0000 C.3     1  UNL1       -0.0274
     38 H           9.7034   -0.1569    0.0000 H       1  UNL1        0.0336
     39 H           6.9215   -1.1685    0.0000 H       1  UNL1        0.0352
     40 H           7.4500    0.3814    0.0000 H       1  UNL1        0.0272
     41 H           6.6529    0.3814    0.0000 H       1  UNL1        0.0272
     42 H           8.6126   -2.4651    0.0000 H       1  UNL1        0.0296
     43 H           9.4010   -2.2075    0.0000 H       1  UNL1        0.0296
     44 H           9.9081   -1.5082    0.0000 H       1  UNL1        0.0270
     45 H           9.9081   -0.6788    0.0000 H       1  UNL1        0.0270
     46 H           5.9733   -0.0109    0.0000 H       1  UNL1        0.0271
     47 H           5.5748   -0.7012    0.0000 H       1  UNL1        0.0271
     48 H           5.2706   -3.9920    0.0000 H       1  UNL1        0.0387
     49 H           8.5374    0.4065    0.0000 H       1  UNL1        0.0236
     50 H           7.9174    1.0265    0.0000 H       1  UNL1        0.0236
     51 H           7.2974    0.4065    0.0000 H       1  UNL1        0.0236
     52 H           4.7568   -1.0696    0.0000 H       1  UNL1        0.0297
     53 H           3.9586   -1.0542    0.0000 H       1  UNL1        0.0297
     54 H           7.6080   -3.4388    0.0000 H       1  UNL1        0.0653
     55 H           3.9346   -4.1676    0.0000 H       1  UNL1        0.0298
     56 H           4.7329   -4.1646    0.0000 H       1  UNL1        0.0298
     57 H           5.9031   -1.1052    0.0000 H       1  UNL1        0.0235
     58 H           5.2879   -0.4804    0.0000 H       1  UNL1        0.0235
     59 H           4.6631   -1.0956    0.0000 H       1  UNL1        0.0235
     60 H           8.8783    1.4844    0.0000 H       1  UNL1        0.0622
     61 H           2.8608   -2.3690    0.0000 H       1  UNL1        0.0619
     62 H           8.4544   -2.9035    0.0000 H       1  UNL1        0.2106
     63 H           3.3911   -3.7692    0.0000 H       1  UNL1        0.0619
     64 H           8.4164    1.5617    0.0000 H       1  UNL1        0.0258
     65 H           7.6345    1.1650    0.0000 H       1  UNL1        0.0258
     66 H           8.0312    0.3831    0.0000 H       1  UNL1        0.0258
     67 H          10.4841    1.1988    0.0000 H       1  UNL1        0.0295
     68 H          11.0773    1.7311    0.0000 H       1  UNL1        0.0295
     69 H          10.5863    0.7651    0.0000 H       1  UNL1        0.2103
     70 H          10.1616    2.6731    0.0000 H       1  UNL1        0.0345
     71 H           9.0098    2.9459    0.0000 H       1  UNL1        0.2099
     72 H           2.0000   -1.8580    0.0000 H       1  UNL1        0.2099
     73 H           2.5220   -4.2658    0.0000 H       1  UNL1        0.2099
     74 H          12.2787    3.3569    0.0000 H       1  UNL1        0.0415
     75 H           9.9073    4.1320    0.0000 H       1  UNL1        0.0734
     76 H          12.1685    1.9862    0.0000 H       1  UNL1        0.0238
     77 H          13.0347    2.1219    0.0000 H       1  UNL1        0.0238
     78 H          12.8990    2.9882    0.0000 H       1  UNL1        0.0238
     79 H           9.1888    4.2008    0.0000 H       1  UNL1        0.0265
     80 H           8.5678    3.5818    0.0000 H       1  UNL1        0.0265
     81 H           9.1867    2.9608    0.0000 H       1  UNL1        0.0265
@<TRIPOS>BOND
     1    10     1    1
     2     1    62    1
     3    19     2    1
     4     2    69    1
     5    27     3    1
     6     3    71    1
     7    28     4    1
     8     4    72    1
     9     5    26    2
    10    29     6    1
    11     6    73    1
    12     7    34    1
    13     7    35    1
    14     8    35    2
    15     9    10    1
    16     9    11    1
    17     9    14    1
    18     9    21    1
    19    10    15    1
    20    10    16    1
    21    11    17    1
    22    11    19    1
    23    11    38    1
    24    12    13    1
    25    12    15    1
    26    12    18    1
    27    12    39    1
    28    13    20    1
    29    13    22    1
    30    13    25    1
    31    14    18    1
    32    14    40    1
    33    14    41    1
    34    15    23    2
    35    16    17    1
    36    16    42    1
    37    16    43    1
    38    17    44    1
    39    17    45    1
    40    18    46    1
    41    18    47    1
    42    19    27    1
    43    19    30    1
    44    20    24    1
    45    20    26    1
    46    20    48    1
    47    21    49    1
    48    21    50    1
    49    21    51    1
    50    22    28    1
    51    22    52    1
    52    22    53    1
    53    23    26    1
    54    23    54    1
    55    24    29    1
    56    24    55    1
    57    24    56    1
    58    25    57    1
    59    25    58    1
    60    25    59    1
    61    27    31    1
    62    27    60    1
    63    28    29    1
    64    28    61    1
    65    29    63    1
    66    30    64    1
    67    30    65    1
    68    30    66    1
    69    32    31    1
    70    31    67    1
    71    31    68    1
    72    32    33    1
    73    32    34    1
    74    32    70    1
    75    33    35    1
    76    33    36    1
    77    33    74    1
    78    34    37    1
    79    34    75    1
    80    36    76    1
    81    36    77    1
    82    36    78    1
    83    37    79    1
    84    37    80    1
    85    37    81    1
