@<TRIPOS>MOLECULE
IMPHY003540
 26 25 0 0 0
SMALL
GASTEIGER

@<TRIPOS>ATOM
      1 O           8.0622   -0.2500    0.0000 O.3     1  UNL1       -0.4648
      2 O           3.7320    0.2500    0.0000 O.3     1  UNL1       -0.4649
      3 O           4.5981   -1.2500    0.0000 O.2     1  UNL1       -0.2509
      4 O           8.9282    1.2500    0.0000 O.2     1  UNL1       -0.2512
      5 C           6.3301   -0.2500    0.0000 C.3     1  UNL1       -0.0085
      6 C           5.4641    0.2500    0.0000 C.3     1  UNL1        0.0480
      7 C           7.1962    0.2500    0.0000 C.3     1  UNL1        0.0929
      8 C           4.5981   -0.2500    0.0000 C.2     1  UNL1        0.3072
      9 C           2.8660   -0.2500    0.0000 C.3     1  UNL1        0.0896
     10 C           2.0000    0.2500    0.0000 C.3     1  UNL1       -0.0306
     11 C           8.9282    0.2500    0.0000 C.2     1  UNL1        0.3039
     12 C           9.7942   -0.2500    0.0000 C.3     1  UNL1        0.0332
     13 H           5.9316   -0.7249    0.0000 H       1  UNL1        0.0303
     14 H           6.7287   -0.7249    0.0000 H       1  UNL1        0.0303
     15 H           5.8626    0.7249    0.0000 H       1  UNL1        0.0379
     16 H           5.0656    0.7249    0.0000 H       1  UNL1        0.0379
     17 H           7.5947    0.7249    0.0000 H       1  UNL1        0.0697
     18 H           6.7976    0.7249    0.0000 H       1  UNL1        0.0697
     19 H           2.4675   -0.7249    0.0000 H       1  UNL1        0.0694
     20 H           3.2646   -0.7249    0.0000 H       1  UNL1        0.0694
     21 H           2.3100    0.7869    0.0000 H       1  UNL1        0.0262
     22 H           1.4631    0.5600    0.0000 H       1  UNL1        0.0262
     23 H           1.6900   -0.2869    0.0000 H       1  UNL1        0.0262
     24 H           9.4842   -0.7869    0.0000 H       1  UNL1        0.0342
     25 H          10.3312   -0.5600    0.0000 H       1  UNL1        0.0342
     26 H          10.1042    0.2869    0.0000 H       1  UNL1        0.0342
@<TRIPOS>BOND
     1     1     7    1
     2     1    11    1
     3     2     8    1
     4     2     9    1
     5     3     8    2
     6     4    11    2
     7     5     6    1
     8     5     7    1
     9     5    13    1
    10     5    14    1
    11     6     8    1
    12     6    15    1
    13     6    16    1
    14     7    17    1
    15     7    18    1
    16     9    10    1
    17     9    19    1
    18     9    20    1
    19    10    21    1
    20    10    22    1
    21    10    23    1
    22    11    12    1
    23    12    24    1
    24    12    25    1
    25    12    26    1
