@<TRIPOS>MOLECULE
IMPHY002978
 40 41 0 0 0
SMALL
GASTEIGER

@<TRIPOS>ATOM
      1 O           3.8660   -3.5000    0.0000 O.2     1  UNL1       -0.4983
      2 O           2.1340   -0.5000    0.0000 O.2     1  UNL1       -0.2908
      3 O           5.5981   -0.5000    0.0000 O.2     1  UNL1       -0.2869
      4 O           3.0000    1.0000    0.0000 O.2     1  UNL1       -0.5059
      5 C           3.0000   -2.0000    0.0000 C.3     1  UNL1        0.0853
      6 C           3.8660   -2.5000    0.0000 C.2     1  UNL1        0.1140
      7 C           3.0000   -1.0000    0.0000 C.2     1  UNL1        0.1832
      8 C           2.5000   -2.8660    0.0000 C.3     1  UNL1       -0.0458
      9 C           2.0000   -2.0000    0.0000 C.3     1  UNL1       -0.0458
     10 C           3.8660   -0.5000    0.0000 C.2     1  UNL1        0.1063
     11 C           4.7320   -2.0000    0.0000 C.2     1  UNL1        0.0243
     12 C           4.7320   -1.0000    0.0000 C.2     1  UNL1        0.1961
     13 C           3.8660    0.5000    0.0000 C.2     1  UNL1        0.1311
     14 C           4.7320    1.0000    0.0000 C.2     1  UNL1       -0.0188
     15 C           4.7320   -4.0000    0.0000 C.3     1  UNL1        0.0784
     16 C           4.7320    2.0000    0.0000 C.2     1  UNL1       -0.0511
     17 C           5.5981    2.5000    0.0000 C.ar    1  UNL1       -0.0249
     18 C           6.4641    2.0000    0.0000 C.ar    1  UNL1       -0.0546
     19 C           5.5981    3.5000    0.0000 C.ar    1  UNL1       -0.0546
     20 C           7.3301    2.5000    0.0000 C.ar    1  UNL1       -0.0612
     21 C           6.4641    4.0000    0.0000 C.ar    1  UNL1       -0.0612
     22 C           7.3301    3.5000    0.0000 C.ar    1  UNL1       -0.0617
     23 H           1.9631   -2.5560    0.0000 H       1  UNL1        0.0243
     24 H           2.0000   -1.3800    0.0000 H       1  UNL1        0.0243
     25 H           1.3800   -2.0000    0.0000 H       1  UNL1        0.0243
     26 H           2.0000   -2.6200    0.0000 H       1  UNL1        0.0243
     27 H           2.1900   -3.4030    0.0000 H       1  UNL1        0.0243
     28 H           3.0369   -3.1760    0.0000 H       1  UNL1        0.0243
     29 H           5.2690   -2.3100    0.0000 H       1  UNL1        0.0690
     30 H           5.2690    0.6900    0.0000 H       1  UNL1        0.0654
     31 H           4.4220   -4.5369    0.0000 H       1  UNL1        0.0660
     32 H           5.2690   -4.3100    0.0000 H       1  UNL1        0.0660
     33 H           5.0420   -3.4631    0.0000 H       1  UNL1        0.0660
     34 H           4.1951    2.3100    0.0000 H       1  UNL1        0.0625
     35 H           3.0000    1.6200    0.0000 H       1  UNL1        0.2922
     36 H           6.4641    1.3800    0.0000 H       1  UNL1        0.0623
     37 H           5.0611    3.8100    0.0000 H       1  UNL1        0.0623
     38 H           7.8671    2.1900    0.0000 H       1  UNL1        0.0618
     39 H           6.4641    4.6200    0.0000 H       1  UNL1        0.0618
     40 H           7.8671    3.8100    0.0000 H       1  UNL1        0.0618
@<TRIPOS>BOND
     1     1     6    1
     2     1    15    1
     3     2     7    2
     4     3    12    2
     5     4    13    1
     6     4    35    1
     7     5     6    1
     8     5     7    1
     9     5     8    1
    10     5     9    1
    11     6    11    2
    12     7    10    1
    13     8    23    1
    14     8    27    1
    15     8    28    1
    16     9    24    1
    17     9    25    1
    18     9    26    1
    19    10    12    1
    20    10    13    2
    21    11    12    1
    22    11    29    1
    23    13    14    1
    24    14    16    2
    25    14    30    1
    26    15    31    1
    27    15    32    1
    28    15    33    1
    29    16    17    1
    30    16    34    1
    31    17    18   ar
    32    17    19   ar
    33    18    20   ar
    34    18    36    1
    35    19    21   ar
    36    19    37    1
    37    20    22   ar
    38    20    38    1
    39    21    22   ar
    40    21    39    1
    41    22    40    1
