@<TRIPOS>MOLECULE
IMPHY006650
 38 40 0 0 0
SMALL
GASTEIGER

@<TRIPOS>ATOM
      1 CL          2.0000   -1.1848    0.0000 Cl      1  UNL1       -0.0835
      2 N           6.4763    1.4715    0.0000 N.3     1  UNL1       -0.2984
      3 N           5.5443   -2.9895    0.0000 N.ar    1  UNL1       -0.3601
      4 C           5.4978    1.2653    0.0000 C.3     1  UNL1        0.0032
      5 C           5.1871    0.3148    0.0000 C.3     1  UNL1       -0.0145
      6 C           5.8550   -0.4295    0.0000 C.2     1  UNL1       -0.0397
      7 C           7.1441    0.7272    0.0000 C.3     1  UNL1        0.0177
      8 C           6.7870    2.4221    0.0000 C.3     1  UNL1       -0.0010
      9 C           6.8335   -0.2233    0.0000 C.2     1  UNL1       -0.0662
     10 C           5.5443   -1.3800    0.0000 C.ar    1  UNL1        0.0030
     11 C           4.5981   -1.6848    0.0000 C.ar    1  UNL1        0.0084
     12 C           7.7654    2.6283    0.0000 C.3     1  UNL1       -0.0430
     13 C           6.1279   -2.1848    0.0000 C.ar    1  UNL1        0.0101
     14 C           4.5981   -2.6848    0.0000 C.ar    1  UNL1        0.0471
     15 C           3.7320   -1.1848    0.0000 C.ar    1  UNL1       -0.0337
     16 C           8.0761    3.5788    0.0000 C.3     1  UNL1       -0.0641
     17 C           3.7320   -3.1848    0.0000 C.ar    1  UNL1       -0.0364
     18 C           2.8660   -1.6848    0.0000 C.ar    1  UNL1        0.0417
     19 C           2.8660   -2.6848    0.0000 C.ar    1  UNL1       -0.0414
     20 H           5.4772    1.8850    0.0000 H       1  UNL1        0.0430
     21 H           4.8840    1.3527    0.0000 H       1  UNL1        0.0430
     22 H           4.6402    0.6068    0.0000 H       1  UNL1        0.0326
     23 H           4.8046   -0.1731    0.0000 H       1  UNL1        0.0326
     24 H           7.6910    0.4352    0.0000 H       1  UNL1        0.0470
     25 H           7.5267    1.2152    0.0000 H       1  UNL1        0.0470
     26 H           6.7664    3.0417    0.0000 H       1  UNL1        0.0427
     27 H           6.1731    2.5094    0.0000 H       1  UNL1        0.0427
     28 H           7.2475   -0.6847    0.0000 H       1  UNL1        0.0588
     29 H           7.7860    2.0086    0.0000 H       1  UNL1        0.0275
     30 H           8.3793    2.5409    0.0000 H       1  UNL1        0.0275
     31 H           6.7479   -2.1848    0.0000 H       1  UNL1        0.0813
     32 H           5.7369   -3.5788    0.0000 H       1  UNL1        0.1654
     33 H           3.7320   -0.5647    0.0000 H       1  UNL1        0.0639
     34 H           8.6654    3.3862    0.0000 H       1  UNL1        0.0230
     35 H           8.2687    4.1681    0.0000 H       1  UNL1        0.0230
     36 H           7.4868    3.7714    0.0000 H       1  UNL1        0.0230
     37 H           3.7320   -3.8048    0.0000 H       1  UNL1        0.0639
     38 H           2.3291   -2.9947    0.0000 H       1  UNL1        0.0633
@<TRIPOS>BOND
     1     1    18    1
     2     2     4    1
     3     2     7    1
     4     2     8    1
     5     3    13   ar
     6     3    14   ar
     7     3    32    1
     8     4     5    1
     9     4    20    1
    10     4    21    1
    11     5     6    1
    12     5    22    1
    13     5    23    1
    14     6     9    2
    15     6    10    1
    16     7     9    1
    17     7    24    1
    18     7    25    1
    19     8    12    1
    20     8    26    1
    21     8    27    1
    22     9    28    1
    23    10    11   ar
    24    10    13   ar
    25    11    14   ar
    26    11    15   ar
    27    12    16    1
    28    12    29    1
    29    12    30    1
    30    13    31    1
    31    14    17   ar
    32    15    18   ar
    33    15    33    1
    34    16    34    1
    35    16    35    1
    36    16    36    1
    37    17    19   ar
    38    17    37    1
    39    18    19   ar
    40    19    38    1
