@<TRIPOS>MOLECULE
IMPHY014510
 57 60 0 0 0
SMALL
GASTEIGER

@<TRIPOS>ATOM
      1 O           4.6913   -1.2183    0.0000 O.3     1  UNL1       -0.4612
      2 O          10.3901    0.8673    0.0000 O.2     1  UNL1       -0.2756
      3 O           2.9630   -1.1042    0.0000 O.2     1  UNL1       -0.2508
      4 N           4.9175    1.8426    0.0000 N.3     1  UNL1       -0.2985
      5 N           9.0163    1.9838    0.0000 N.am    1  UNL1       -0.2978
      6 C           6.9675    2.1491    0.0000 C.3     1  UNL1       -0.0091
      7 C           7.2263    3.1150    0.0000 C.3     1  UNL1       -0.0092
      8 C           5.7465    1.2834    0.0000 C.3     1  UNL1        0.0180
      9 C           6.4897    4.0976    0.0000 C.3     1  UNL1       -0.0417
     10 C           8.6580    2.9174    0.0000 C.3     1  UNL1        0.0300
     11 C           5.1931    2.8039    0.0000 C.3     1  UNL1        0.0037
     12 C           8.2392    1.3544    0.0000 C.3     1  UNL1        0.0192
     13 C           5.6899    0.2433    0.0000 C.3     1  UNL1        0.0003
     14 C           9.3010    3.7369    0.0000 C.3     1  UNL1       -0.0336
     15 C           3.9743    1.4005    0.0000 C.3     1  UNL1        0.0025
     16 C           4.7572   -0.2205    0.0000 C.3     1  UNL1        0.1057
     17 C           3.8936    0.3620    0.0000 C.3     1  UNL1       -0.0028
     18 C          10.3310    3.5818    0.0000 C.3     1  UNL1       -0.0431
     19 C          10.0425    1.8050    0.0000 C.2     1  UNL1        0.2158
     20 C          10.7043    2.6094    0.0000 C.3     1  UNL1        0.0242
     21 C           3.7942   -1.6602    0.0000 C.2     1  UNL1        0.3076
     22 C           3.7283   -2.6580    0.0000 C.3     1  UNL1        0.0473
     23 C           2.8312   -3.0998    0.0000 C.3     1  UNL1       -0.0367
     24 C           2.7653   -4.0976    0.0000 C.3     1  UNL1       -0.0622
     25 C           2.0000   -2.5438    0.0000 C.3     1  UNL1       -0.0622
     26 H           6.7475    1.3280    0.0000 H       1  UNL1        0.0331
     27 H           7.4463    3.9360    0.0000 H       1  UNL1        0.0331
     28 H           6.4512    0.8081    0.0000 H       1  UNL1        0.0467
     29 H           6.8075    4.6300    0.0000 H       1  UNL1        0.0273
     30 H           5.8766    4.1896    0.0000 H       1  UNL1        0.0273
     31 H           9.2711    2.8251    0.0000 H       1  UNL1        0.0503
     32 H           5.1880    3.4239    0.0000 H       1  UNL1        0.0430
     33 H           4.5788    2.8877    0.0000 H       1  UNL1        0.0430
     34 H           7.8547    0.8681    0.0000 H       1  UNL1        0.0468
     35 H           8.6802    0.9186    0.0000 H       1  UNL1        0.0468
     36 H           5.8669   -0.3509    0.0000 H       1  UNL1        0.0316
     37 H           6.3056    0.3161    0.0000 H       1  UNL1        0.0316
     38 H           9.4968    4.3251    0.0000 H       1  UNL1        0.0283
     39 H           8.7549    4.0304    0.0000 H       1  UNL1        0.0283
     40 H           3.8111    1.9986    0.0000 H       1  UNL1        0.0428
     41 H           3.3571    1.3420    0.0000 H       1  UNL1        0.0428
     42 H           5.2732   -0.5642    0.0000 H       1  UNL1        0.0735
     43 H           3.2928    0.5151    0.0000 H       1  UNL1        0.0313
     44 H           3.6400   -0.2038    0.0000 H       1  UNL1        0.0313
     45 H          10.9393    3.7017    0.0000 H       1  UNL1        0.0270
     46 H          10.3170    4.2017    0.0000 H       1  UNL1        0.0270
     47 H          11.1086    2.1394    0.0000 H       1  UNL1        0.0358
     48 H          11.2365    2.9274    0.0000 H       1  UNL1        0.0358
     49 H           3.9015   -3.2533    0.0000 H       1  UNL1        0.0380
     50 H           4.3446   -2.5908    0.0000 H       1  UNL1        0.0380
     51 H           2.2750   -3.3737    0.0000 H       1  UNL1        0.0301
     52 H           2.1466   -4.0568    0.0000 H       1  UNL1        0.0232
     53 H           2.7244   -4.7163    0.0000 H       1  UNL1        0.0232
     54 H           3.3839   -4.1385    0.0000 H       1  UNL1        0.0232
     55 H           2.3447   -2.0285    0.0000 H       1  UNL1        0.0232
     56 H           1.4847   -2.1991    0.0000 H       1  UNL1        0.0232
     57 H           1.6553   -3.0591    0.0000 H       1  UNL1        0.0232
@<TRIPOS>BOND
     1     1    16    1
     2     1    21    1
     3     2    19    2
     4     3    21    2
     5     4     8    1
     6     4    11    1
     7     4    15    1
     8     5    10    1
     9     5    12    1
    10     5    19   am
    11     6     8    1
    12     6     9    1
    13     6    12    1
    14     6    26    1
    15     7     9    1
    16     7    10    1
    17     7    11    1
    18     7    27    1
    19     8    13    1
    20     8    28    1
    21     9    29    1
    22     9    30    1
    23    10    14    1
    24    10    31    1
    25    11    32    1
    26    11    33    1
    27    12    34    1
    28    12    35    1
    29    13    16    1
    30    13    36    1
    31    13    37    1
    32    14    18    1
    33    14    38    1
    34    14    39    1
    35    15    17    1
    36    15    40    1
    37    15    41    1
    38    16    17    1
    39    16    42    1
    40    17    43    1
    41    17    44    1
    42    18    20    1
    43    18    45    1
    44    18    46    1
    45    19    20    1
    46    20    47    1
    47    20    48    1
    48    21    22    1
    49    22    23    1
    50    22    49    1
    51    22    50    1
    52    23    24    1
    53    23    25    1
    54    23    51    1
    55    24    52    1
    56    24    53    1
    57    24    54    1
    58    25    55    1
    59    25    56    1
    60    25    57    1
