@<TRIPOS>MOLECULE
IMPHY000954
 202 212 0 0 0
SMALL
GASTEIGER

@<TRIPOS>ATOM
      1 O          11.3261    7.6425    0.0000 O.3     1  UNL1       -0.3418
      2 O          13.1212    6.5689    0.0000 O.3     1  UNL1       -0.3892
      3 O           8.7310    1.3732    0.0000 O.3     1  UNL1       -0.3941
      4 O           9.4651   -1.6160    0.0000 O.3     1  UNL1       -0.4318
      5 O           8.8741    6.9791    0.0000 O.3     1  UNL1       -0.4802
      6 O          10.3775    7.8394    0.0000 O.2     1  UNL1       -0.2503
      7 O           8.5991   -0.1160    0.0000 O.2     1  UNL1       -0.2501
      8 O          13.0581    7.6225    0.0000 O.3     1  UNL1       -0.3405
      9 O           7.7331   -1.6160    0.0000 O.3     1  UNL1       -0.3327
     10 O          11.3493    9.6424    0.0000 O.3     1  UNL1       -0.3841
     11 O          13.0928   10.6223    0.0000 O.3     1  UNL1       -0.3864
     12 O           9.4651   -3.6160    0.0000 O.3     1  UNL1       -0.3365
     13 O          14.8131    9.6023    0.0000 O.3     1  UNL1       -0.3865
     14 O           7.7331   -4.6160    0.0000 O.3     1  UNL1       -0.3852
     15 O           6.0010   -3.6160    0.0000 O.3     1  UNL1       -0.4529
     16 O          14.7784    6.6025    0.0000 O.3     1  UNL1       -0.3924
     17 O           8.5991   -5.1160    0.0000 O.3     1  UNL1       -0.3431
     18 O          11.1972   -4.6160    0.0000 O.3     1  UNL1       -0.3841
     19 O          11.1972   -6.6160    0.0000 O.3     1  UNL1       -0.3864
     20 O           9.4651   -7.6160    0.0000 O.3     1  UNL1       -0.3402
     21 O           5.1350   -2.1160    0.0000 O.2     1  UNL1       -0.2456
     22 O           7.7331   -7.6160    0.0000 O.3     1  UNL1       -0.3460
     23 O           9.4651   -9.6160    0.0000 O.3     1  UNL1       -0.3841
     24 O           7.7331  -10.6160    0.0000 O.3     1  UNL1       -0.3864
     25 O           6.0010   -9.6160    0.0000 O.3     1  UNL1       -0.3405
     26 O           4.2690   -9.6160    0.0000 O.3     1  UNL1       -0.3405
     27 O           3.4030    0.8840    0.0000 O.3     1  UNL1       -0.4951
     28 O           6.0010   -7.6160    0.0000 O.3     1  UNL1       -0.3841
     29 O           4.2690   -6.6160    0.0000 O.3     1  UNL1       -0.3864
     30 O           2.5369   -7.6160    0.0000 O.3     1  UNL1       -0.3865
     31 O           2.5369  -10.6160    0.0000 O.3     1  UNL1       -0.3924
     32 C          10.3708    2.9530    0.0000 C.3     1  UNL1       -0.0170
     33 C          11.2406    3.4463    0.0000 C.3     1  UNL1       -0.0256
     34 C          11.2647    4.4877    0.0000 C.3     1  UNL1       -0.0221
     35 C          10.3631    1.9530    0.0000 C.3     1  UNL1        0.0208
     36 C          10.3708    5.0223    0.0000 C.3     1  UNL1       -0.0172
     37 C           9.4647    3.4668    0.0000 C.3     1  UNL1       -0.0462
     38 C          11.2252    1.4464    0.0000 C.2     1  UNL1       -0.0604
     39 C           9.4647    4.5085    0.0000 C.3     1  UNL1       -0.0481
     40 C          10.3708    6.1073    0.0000 C.3     1  UNL1        0.0966
     41 C          11.2332    0.4048    0.0000 C.3     1  UNL1       -0.0031
     42 C          12.1028    2.9397    0.0000 C.3     1  UNL1       -0.0306
     43 C          12.2206    5.0009    0.0000 C.3     1  UNL1       -0.0184
     44 C           9.4492    1.4532    0.0000 C.3     1  UNL1       -0.0400
     45 C          10.3312   -0.1160    0.0000 C.3     1  UNL1        0.0744
     46 C           9.3846    2.7870    0.0000 C.3     1  UNL1       -0.0584
     47 C           9.4331    0.4117    0.0000 C.3     1  UNL1       -0.0358
     48 C          11.3146    6.6426    0.0000 C.3     1  UNL1        0.1033
     49 C          12.0951    1.9397    0.0000 C.2     1  UNL1       -0.0836
     50 C          12.2457    6.0856    0.0000 C.3     1  UNL1        0.0830
     51 C          12.1229    3.9744    0.0000 C.3     1  UNL1       -0.0589
     52 C           9.3796    2.1343    0.0000 C.3     1  UNL1        0.0540
     53 C          12.1811   -0.1232    0.0000 C.3     1  UNL1       -0.0403
     54 C          10.3144   -1.2009    0.0000 C.3     1  UNL1       -0.0362
     55 C          12.1895   -1.2081    0.0000 C.3     1  UNL1       -0.0343
     56 C          11.2499   -1.7506    0.0000 C.3     1  UNL1       -0.0468
     57 C           9.3708    6.1112    0.0000 C.3     1  UNL1       -0.0466
     58 C           9.8741    6.9753    0.0000 C.2     1  UNL1        0.3136
     59 C           9.4651   -0.6160    0.0000 C.2     1  UNL1        0.3161
     60 C          13.1895   -1.2043    0.0000 C.3     1  UNL1       -0.0598
     61 C          12.6928   -2.0722    0.0000 C.3     1  UNL1       -0.0598
     62 C          12.1979    8.1324    0.0000 C.3     1  UNL1        0.1884
     63 C          12.2094    9.1324    0.0000 C.3     1  UNL1        0.1341
     64 C           8.5991   -2.1160    0.0000 C.3     1  UNL1        0.2341
     65 C          13.0812    9.6223    0.0000 C.3     1  UNL1        0.1141
     66 C          13.9298    8.1124    0.0000 C.3     1  UNL1        0.1130
     67 C           8.5991   -3.1160    0.0000 C.3     1  UNL1        0.1531
     68 C          13.9414    9.1124    0.0000 C.3     1  UNL1        0.1119
     69 C           7.7331   -3.6160    0.0000 C.3     1  UNL1        0.1265
     70 C           6.8671   -2.1160    0.0000 C.3     1  UNL1        0.0994
     71 C           6.8671   -3.1160    0.0000 C.3     1  UNL1        0.1575
     72 C          14.7900    7.6024    0.0000 C.3     1  UNL1        0.0730
     73 C           6.0010   -1.6160    0.0000 C.3     1  UNL1       -0.0350
     74 C           9.4651   -4.6160    0.0000 C.3     1  UNL1        0.1885
     75 C          10.3312   -5.1160    0.0000 C.3     1  UNL1        0.1341
     76 C          10.3312   -6.1160    0.0000 C.3     1  UNL1        0.1143
     77 C           5.1350   -3.1160    0.0000 C.2     1  UNL1        0.3324
     78 C           8.5991   -6.1160    0.0000 C.3     1  UNL1        0.0877
     79 C           9.4651   -6.6160    0.0000 C.3     1  UNL1        0.1160
     80 C           7.7331   -6.6160    0.0000 C.3     1  UNL1       -0.0361
     81 C           4.2690   -3.6160    0.0000 C.2     1  UNL1        0.0231
     82 C           8.5991   -8.1160    0.0000 C.3     1  UNL1        0.1880
     83 C           3.4030   -3.1160    0.0000 C.2     1  UNL1       -0.0478
     84 C           8.5991   -9.1160    0.0000 C.3     1  UNL1        0.1341
     85 C           3.4030   -2.1160    0.0000 C.ar    1  UNL1       -0.0246
     86 C           7.7331   -9.6160    0.0000 C.3     1  UNL1        0.1141
     87 C           6.8671   -8.1160    0.0000 C.3     1  UNL1        0.0796
     88 C           6.8671   -9.1160    0.0000 C.3     1  UNL1        0.1134
     89 C           2.5369   -1.6160    0.0000 C.ar    1  UNL1       -0.0511
     90 C           4.2690   -1.6160    0.0000 C.ar    1  UNL1       -0.0511
     91 C           2.5369   -0.6160    0.0000 C.ar    1  UNL1       -0.0194
     92 C           4.2690   -0.6160    0.0000 C.ar    1  UNL1       -0.0194
     93 C           5.1350   -9.1160    0.0000 C.3     1  UNL1        0.1884
     94 C           3.4030   -0.1160    0.0000 C.ar    1  UNL1        0.1201
     95 C           5.1350   -8.1160    0.0000 C.3     1  UNL1        0.1341
     96 C           4.2690   -7.6160    0.0000 C.3     1  UNL1        0.1141
     97 C           3.4030   -9.1160    0.0000 C.3     1  UNL1        0.1130
     98 C           3.4030   -8.1160    0.0000 C.3     1  UNL1        0.1119
     99 C           2.5369   -9.6160    0.0000 C.3     1  UNL1        0.0730
    100 C           2.5369    1.3840    0.0000 C.3     1  UNL1        0.0788
    101 H          11.7823    3.7480    0.0000 H       1  UNL1        0.0315
    102 H           9.8350    5.3344    0.0000 H       1  UNL1        0.0317
    103 H           8.8539    3.5730    0.0000 H       1  UNL1        0.0271
    104 H           9.2556    2.8832    0.0000 H       1  UNL1        0.0271
    105 H           9.2556    5.0922    0.0000 H       1  UNL1        0.0269
    106 H           8.8539    4.4024    0.0000 H       1  UNL1        0.0269
    107 H          11.9644    0.8383    0.0000 H       1  UNL1        0.0357
    108 H          12.7125    2.8273    0.0000 H       1  UNL1        0.0310
    109 H          12.3193    3.5206    0.0000 H       1  UNL1        0.0310
    110 H          12.4161    4.4126    0.0000 H       1  UNL1        0.0296
    111 H          12.8338    5.0929    0.0000 H       1  UNL1        0.0296
    112 H           9.2492    2.0401    0.0000 H       1  UNL1        0.0275
    113 H           8.8368    1.3566    0.0000 H       1  UNL1        0.0275
    114 H           9.2817    3.3984    0.0000 H       1  UNL1        0.0235
    115 H           8.7733    2.6841    0.0000 H       1  UNL1        0.0235
    116 H           9.4876    2.1756    0.0000 H       1  UNL1        0.0235
    117 H           8.8240    0.5272    0.0000 H       1  UNL1        0.0276
    118 H           9.2151   -0.1687    0.0000 H       1  UNL1        0.0276
    119 H          11.8556    6.9453    0.0000 H       1  UNL1        0.0634
    120 H          12.6296    1.6256    0.0000 H       1  UNL1        0.0572
    121 H          12.7760    5.7643    0.0000 H       1  UNL1        0.0619
    122 H          11.8047    3.4423    0.0000 H       1  UNL1        0.0235
    123 H          12.6550    3.6561    0.0000 H       1  UNL1        0.0235
    124 H          12.4412    4.5065    0.0000 H       1  UNL1        0.0235
    125 H           9.5962    2.7152    0.0000 H       1  UNL1        0.0566
    126 H           8.8451    2.4484    0.0000 H       1  UNL1        0.0566
    127 H          12.7928   -0.2245    0.0000 H       1  UNL1        0.0276
    128 H          12.3857    0.4621    0.0000 H       1  UNL1        0.0276
    129 H           9.7053   -1.0854    0.0000 H       1  UNL1        0.0276
    130 H          10.0964   -1.7813    0.0000 H       1  UNL1        0.0276
    131 H          10.8489   -2.2235    0.0000 H       1  UNL1        0.0271
    132 H          11.6472   -2.2266    0.0000 H       1  UNL1        0.0271
    133 H           9.3732    6.7312    0.0000 H       1  UNL1        0.0241
    134 H           8.7508    6.1136    0.0000 H       1  UNL1        0.0241
    135 H           9.3684    5.4912    0.0000 H       1  UNL1        0.0241
    136 H          13.1919   -1.8243    0.0000 H       1  UNL1        0.0235
    137 H          13.8095   -1.2019    0.0000 H       1  UNL1        0.0235
    138 H          13.1871   -0.5843    0.0000 H       1  UNL1        0.0235
    139 H          12.1571   -2.3843    0.0000 H       1  UNL1        0.0235
    140 H          13.0049   -2.6080    0.0000 H       1  UNL1        0.0235
    141 H          13.2286   -1.7602    0.0000 H       1  UNL1        0.0235
    142 H          13.6521    6.2486    0.0000 H       1  UNL1        0.2099
    143 H           8.1212    1.4856    0.0000 H       1  UNL1        0.2094
    144 H          11.6646    8.4486    0.0000 H       1  UNL1        0.0938
    145 H           8.5662    7.5172    0.0000 H       1  UNL1        0.2951
    146 H          12.2166    9.7523    0.0000 H       1  UNL1        0.0671
    147 H           8.5991   -1.4960    0.0000 H       1  UNL1        0.1085
    148 H          13.6217    9.9261    0.0000 H       1  UNL1        0.0648
    149 H          13.9226    7.4925    0.0000 H       1  UNL1        0.0647
    150 H           8.5991   -3.7360    0.0000 H       1  UNL1        0.0687
    151 H          13.9485    9.7323    0.0000 H       1  UNL1        0.0647
    152 H          11.3564   10.2623    0.0000 H       1  UNL1        0.2101
    153 H           7.1962   -3.9260    0.0000 H       1  UNL1        0.0659
    154 H           6.8671   -1.4960    0.0000 H       1  UNL1        0.0632
    155 H           6.3301   -2.8060    0.0000 H       1  UNL1        0.0787
    156 H          15.3993    7.4877    0.0000 H       1  UNL1        0.0584
    157 H          15.0088    8.1826    0.0000 H       1  UNL1        0.0584
    158 H          13.6332   10.9260    0.0000 H       1  UNL1        0.2100
    159 H          15.3464    9.2861    0.0000 H       1  UNL1        0.2100
    160 H           6.3110   -1.0791    0.0000 H       1  UNL1        0.0256
    161 H           5.4641   -1.3060    0.0000 H       1  UNL1        0.0256
    162 H           5.6910   -2.1530    0.0000 H       1  UNL1        0.0256
    163 H          10.0021   -4.3060    0.0000 H       1  UNL1        0.0938
    164 H           7.1962   -4.9260    0.0000 H       1  UNL1        0.2101
    165 H          15.3117    6.2863    0.0000 H       1  UNL1        0.2095
    166 H          10.8681   -5.4260    0.0000 H       1  UNL1        0.0671
    167 H          10.8681   -5.8060    0.0000 H       1  UNL1        0.0648
    168 H           8.0622   -5.8060    0.0000 H       1  UNL1        0.0621
    169 H          10.0021   -6.9260    0.0000 H       1  UNL1        0.0650
    170 H          11.1972   -3.9960    0.0000 H       1  UNL1        0.2101
    171 H           7.4231   -6.0791    0.0000 H       1  UNL1        0.0255
    172 H           7.1962   -6.9260    0.0000 H       1  UNL1        0.0255
    173 H           8.0431   -7.1530    0.0000 H       1  UNL1        0.0255
    174 H           4.2690   -4.2360    0.0000 H       1  UNL1        0.0689
    175 H          11.1972   -7.2360    0.0000 H       1  UNL1        0.2100
    176 H           8.5991   -7.4960    0.0000 H       1  UNL1        0.0937
    177 H           2.8660   -3.4260    0.0000 H       1  UNL1        0.0626
    178 H           8.5991   -9.7360    0.0000 H       1  UNL1        0.0671
    179 H           7.1962   -9.9260    0.0000 H       1  UNL1        0.0648
    180 H           6.6550   -7.5334    0.0000 H       1  UNL1        0.0587
    181 H           6.2565   -8.2237    0.0000 H       1  UNL1        0.0587
    182 H           6.3301   -8.8060    0.0000 H       1  UNL1        0.0647
    183 H           9.4651  -10.2360    0.0000 H       1  UNL1        0.2101
    184 H           2.0000   -1.9260    0.0000 H       1  UNL1        0.0625
    185 H           4.8059   -1.9260    0.0000 H       1  UNL1        0.0625
    186 H           7.1962  -10.9260    0.0000 H       1  UNL1        0.2100
    187 H           2.0000   -0.3060    0.0000 H       1  UNL1        0.0654
    188 H           4.8059   -0.3060    0.0000 H       1  UNL1        0.0654
    189 H           5.1350   -9.7360    0.0000 H       1  UNL1        0.0938
    190 H           5.1350   -7.4960    0.0000 H       1  UNL1        0.0671
    191 H           3.7320   -7.3060    0.0000 H       1  UNL1        0.0648
    192 H           3.4030   -9.7360    0.0000 H       1  UNL1        0.0647
    193 H           3.4030   -7.4960    0.0000 H       1  UNL1        0.0647
    194 H           6.0010   -6.9960    0.0000 H       1  UNL1        0.2101
    195 H           2.3249   -9.0334    0.0000 H       1  UNL1        0.0584
    196 H           1.9264   -9.7237    0.0000 H       1  UNL1        0.0584
    197 H           2.8469    1.9209    0.0000 H       1  UNL1        0.0660
    198 H           2.0000    1.6940    0.0000 H       1  UNL1        0.0660
    199 H           2.2269    0.8470    0.0000 H       1  UNL1        0.0660
    200 H           3.7320   -6.3060    0.0000 H       1  UNL1        0.2100
    201 H           2.0000   -7.9260    0.0000 H       1  UNL1        0.2100
    202 H           2.0000  -10.9260    0.0000 H       1  UNL1        0.2095
@<TRIPOS>BOND
     1     1    48    1
     2    62     1    1
     3     2    50    1
     4     2   142    1
     5     3    52    1
     6     3   143    1
     7     4    59    1
     8    64     4    1
     9     5    58    1
    10     5   145    1
    11     6    58    2
    12     7    59    2
    13     8    62    1
    14     8    66    1
    15     9    64    1
    16     9    70    1
    17    63    10    1
    18    10   152    1
    19    65    11    1
    20    11   158    1
    21    12    67    1
    22    74    12    1
    23    13    68    1
    24    13   159    1
    25    14    69    1
    26    14   164    1
    27    71    15    1
    28    15    77    1
    29    16    72    1
    30    16   165    1
    31    17    74    1
    32    17    78    1
    33    18    75    1
    34    18   170    1
    35    19    76    1
    36    19   175    1
    37    79    20    1
    38    82    20    1
    39    21    77    2
    40    22    82    1
    41    22    87    1
    42    23    84    1
    43    23   183    1
    44    24    86    1
    45    24   186    1
    46    25    88    1
    47    93    25    1
    48    26    93    1
    49    26    97    1
    50    27    94    1
    51    27   100    1
    52    28    95    1
    53    28   194    1
    54    29    96    1
    55    29   200    1
    56    98    30    1
    57    30   201    1
    58    31    99    1
    59    31   202    1
    60    32    33    1
    61    32    35    1
    62    32    37    1
    63    32    46    1
    64    33    34    1
    65    33    42    1
    66    33   101    1
    67    34    36    1
    68    34    43    1
    69    34    51    1
    70    35    38    1
    71    35    44    1
    72    35    52    1
    73    36    39    1
    74    36    40    1
    75    36   102    1
    76    37    39    1
    77    37   103    1
    78    37   104    1
    79    38    41    1
    80    38    49    2
    81    39   105    1
    82    39   106    1
    83    40    48    1
    84    40    57    1
    85    40    58    1
    86    41    45    1
    87    41    53    1
    88    41   107    1
    89    42    49    1
    90    42   108    1
    91    42   109    1
    92    43    50    1
    93    43   110    1
    94    43   111    1
    95    44    47    1
    96    44   112    1
    97    44   113    1
    98    45    47    1
    99    45    54    1
   100    45    59    1
   101    46   114    1
   102    46   115    1
   103    46   116    1
   104    47   117    1
   105    47   118    1
   106    48    50    1
   107    48   119    1
   108    49   120    1
   109    50   121    1
   110    51   122    1
   111    51   123    1
   112    51   124    1
   113    52   125    1
   114    52   126    1
   115    53    55    1
   116    53   127    1
   117    53   128    1
   118    54    56    1
   119    54   129    1
   120    54   130    1
   121    55    56    1
   122    55    60    1
   123    55    61    1
   124    56   131    1
   125    56   132    1
   126    57   133    1
   127    57   134    1
   128    57   135    1
   129    60   136    1
   130    60   137    1
   131    60   138    1
   132    61   139    1
   133    61   140    1
   134    61   141    1
   135    62    63    1
   136    62   144    1
   137    63    65    1
   138    63   146    1
   139    64    67    1
   140    64   147    1
   141    65    68    1
   142    65   148    1
   143    66    68    1
   144    66    72    1
   145    66   149    1
   146    67    69    1
   147    67   150    1
   148    68   151    1
   149    69    71    1
   150    69   153    1
   151    70    71    1
   152    70    73    1
   153    70   154    1
   154    71   155    1
   155    72   156    1
   156    72   157    1
   157    73   160    1
   158    73   161    1
   159    73   162    1
   160    74    75    1
   161    74   163    1
   162    75    76    1
   163    75   166    1
   164    76    79    1
   165    76   167    1
   166    77    81    1
   167    78    79    1
   168    78    80    1
   169    78   168    1
   170    79   169    1
   171    80   171    1
   172    80   172    1
   173    80   173    1
   174    81    83    2
   175    81   174    1
   176    82    84    1
   177    82   176    1
   178    83    85    1
   179    83   177    1
   180    84    86    1
   181    84   178    1
   182    85    89   ar
   183    85    90   ar
   184    86    88    1
   185    86   179    1
   186    87    88    1
   187    87   180    1
   188    87   181    1
   189    88   182    1
   190    89    91   ar
   191    89   184    1
   192    90    92   ar
   193    90   185    1
   194    91    94   ar
   195    91   187    1
   196    92    94   ar
   197    92   188    1
   198    93    95    1
   199    93   189    1
   200    95    96    1
   201    95   190    1
   202    96    98    1
   203    96   191    1
   204    97    98    1
   205    97    99    1
   206    97   192    1
   207    98   193    1
   208    99   195    1
   209    99   196    1
   210   100   197    1
   211   100   198    1
   212   100   199    1
