@<TRIPOS>MOLECULE
IMPHY001228
 92 98 0 0 0
SMALL
GASTEIGER

@<TRIPOS>ATOM
      1 O           8.2565   -0.7929    0.0000 O.3     1  UNL1       -0.4573
      2 O           6.7390   -1.9617    0.0000 O.3     1  UNL1       -0.3790
      3 O           4.9163    1.8001    0.0000 O.3     1  UNL1       -0.3791
      4 O           8.6327    1.5486    0.0000 O.3     1  UNL1       -0.4544
      5 O           7.0415    3.1120    0.0000 O.3     1  UNL1       -0.3823
      6 O           9.0340    2.2581    0.0000 O.3     1  UNL1       -0.3767
      7 O           3.1654   -0.4700    0.0000 O.3     1  UNL1       -0.3910
      8 O           4.0503   -2.4350    0.0000 O.3     1  UNL1       -0.3823
      9 O           9.9407   -0.3886    0.0000 O.2     1  UNL1       -0.2511
     10 O           9.6297    0.1323    0.0000 O.2     1  UNL1       -0.2449
     11 N           3.7210   -0.0289    0.0000 N.3     1  UNL1       -0.2978
     12 C           5.6676    0.3663    0.0000 C.3     1  UNL1        0.0223
     13 C           5.6676   -0.5013    0.0000 C.3     1  UNL1        0.0067
     14 C           6.3459    0.9073    0.0000 C.3     1  UNL1       -0.0185
     15 C           4.6656    0.2603    0.0000 C.3     1  UNL1        0.0279
     16 C           7.1918   -0.8491    0.0000 C.3     1  UNL1        0.0421
     17 C           7.1918    0.7142    0.0000 C.3     1  UNL1        0.0429
     18 C           7.5682   -0.0675    0.0000 C.3     1  UNL1        0.1291
     19 C           6.3459   -1.0422    0.0000 C.3     1  UNL1        0.0704
     20 C           4.9163   -0.9350    0.0000 C.3     1  UNL1        0.0386
     21 C           4.9163    0.8001    0.0000 C.3     1  UNL1        0.0683
     22 C           6.2682    1.7713    0.0000 C.3     1  UNL1       -0.0140
     23 C           7.0659    2.1123    0.0000 C.3     1  UNL1        0.1294
     24 C           7.6367    1.4590    0.0000 C.3     1  UNL1        0.1410
     25 C           8.2131    0.2025    0.0000 C.3     1  UNL1        0.0171
     26 C           3.7210   -0.7808    0.0000 C.3     1  UNL1        0.0097
     27 C           4.1649   -0.5013    0.0000 C.3     1  UNL1        0.0668
     28 C           8.2131    1.6870    0.0000 C.3     1  UNL1        0.0941
     29 C           4.1649    0.3663    0.0000 C.3     1  UNL1        0.0008
     30 C           4.9163   -1.9350    0.0000 C.3     1  UNL1        0.0568
     31 C           2.9170    0.5658    0.0000 C.3     1  UNL1       -0.0036
     32 C           6.1391   -2.7618    0.0000 C.3     1  UNL1        0.0368
     33 C           9.2153   -1.0769    0.0000 C.2     1  UNL1        0.3045
     34 C           2.0000    0.1669    0.0000 C.3     1  UNL1       -0.0523
     35 C           4.0502    2.3001    0.0000 C.3     1  UNL1        0.0368
     36 C           9.5401    1.1282    0.0000 C.2     1  UNL1        0.3395
     37 C           8.9498    3.2545    0.0000 C.3     1  UNL1        0.0369
     38 C           4.0503   -3.4350    0.0000 C.3     1  UNL1        0.0365
     39 C           9.4487   -2.0493    0.0000 C.3     1  UNL1        0.0333
     40 C          10.3578    1.7039    0.0000 C.ar    1  UNL1        0.0590
     41 C          11.2651    1.2835    0.0000 C.ar    1  UNL1       -0.0478
     42 C          10.2681    2.6998    0.0000 C.ar    1  UNL1       -0.0478
     43 C          12.0829    1.8591    0.0000 C.ar    1  UNL1       -0.0610
     44 C          11.0859    3.2755    0.0000 C.ar    1  UNL1       -0.0610
     45 C          11.9932    2.8551    0.0000 C.ar    1  UNL1       -0.0617
     46 H           5.6041   -1.3489    0.0000 H       1  UNL1        0.0340
     47 H           5.5643    1.2413    0.0000 H       1  UNL1        0.0314
     48 H           4.3537    1.0510    0.0000 H       1  UNL1        0.0474
     49 H           7.5783   -1.3339    0.0000 H       1  UNL1        0.0380
     50 H           8.0409    0.6761    0.0000 H       1  UNL1        0.0379
     51 H           6.1455   -1.6289    0.0000 H       1  UNL1        0.0603
     52 H           5.4532    1.1101    0.0000 H       1  UNL1        0.0603
     53 H           6.0854    2.3638    0.0000 H       1  UNL1        0.0298
     54 H           5.6598    1.6515    0.0000 H       1  UNL1        0.0298
     55 H           7.8676    2.0344    0.0000 H       1  UNL1        0.0768
     56 H           8.3750   -0.3960    0.0000 H       1  UNL1        0.0330
     57 H           8.8277    0.2841    0.0000 H       1  UNL1        0.0330
     58 H           3.1015   -0.7543    0.0000 H       1  UNL1        0.0434
     59 H           3.6680   -1.3985    0.0000 H       1  UNL1        0.0434
     60 H           3.9952   -1.0976    0.0000 H       1  UNL1        0.0601
     61 H           8.1349    2.3020    0.0000 H       1  UNL1        0.0627
     62 H           3.9529    0.9489    0.0000 H       1  UNL1        0.0315
     63 H           3.5544    0.2587    0.0000 H       1  UNL1        0.0315
     64 H           5.1283   -2.5176    0.0000 H       1  UNL1        0.0566
     65 H           5.5269   -1.8274    0.0000 H       1  UNL1        0.0566
     66 H           3.3666    0.9926    0.0000 H       1  UNL1        0.0424
     67 H           2.5747    1.0827    0.0000 H       1  UNL1        0.0424
     68 H           7.5707    3.4350    0.0000 H       1  UNL1        0.2104
     69 H           2.8388   -0.9970    0.0000 H       1  UNL1        0.2098
     70 H           5.6430   -2.3899    0.0000 H       1  UNL1        0.0524
     71 H           5.7672   -3.2579    0.0000 H       1  UNL1        0.0524
     72 H           6.6352   -3.1337    0.0000 H       1  UNL1        0.0524
     73 H           1.7527    0.7354    0.0000 H       1  UNL1        0.0242
     74 H           1.4315   -0.0805    0.0000 H       1  UNL1        0.0242
     75 H           2.2473   -0.4017    0.0000 H       1  UNL1        0.0242
     76 H           4.3602    2.8370    0.0000 H       1  UNL1        0.0524
     77 H           3.5133    2.6101    0.0000 H       1  UNL1        0.0524
     78 H           3.7402    1.7632    0.0000 H       1  UNL1        0.0524
     79 H           9.5676    3.3067    0.0000 H       1  UNL1        0.0524
     80 H           8.8976    3.8723    0.0000 H       1  UNL1        0.0524
     81 H           8.3320    3.2024    0.0000 H       1  UNL1        0.0524
     82 H           3.4303   -3.4350    0.0000 H       1  UNL1        0.0523
     83 H           4.0503   -4.0550    0.0000 H       1  UNL1        0.0523
     84 H           4.6703   -3.4350    0.0000 H       1  UNL1        0.0523
     85 H           8.8459   -2.1940    0.0000 H       1  UNL1        0.0342
     86 H           9.5935   -2.6521    0.0000 H       1  UNL1        0.0342
     87 H          10.0516   -1.9046    0.0000 H       1  UNL1        0.0342
     88 H          11.3207    0.6660    0.0000 H       1  UNL1        0.0626
     89 H           9.7056    2.9605    0.0000 H       1  UNL1        0.0626
     90 H          12.6454    1.5985    0.0000 H       1  UNL1        0.0618
     91 H          11.0303    3.8930    0.0000 H       1  UNL1        0.0618
     92 H          12.5002    3.2120    0.0000 H       1  UNL1        0.0618
@<TRIPOS>BOND
     1    18     1    1
     2     1    33    1
     3     2    19    1
     4     2    32    1
     5    21     3    1
     6     3    35    1
     7    24     4    1
     8     4    36    1
     9    23     5    1
    10     5    68    1
    11    28     6    1
    12     6    37    1
    13    27     7    1
    14     7    69    1
    15     8    30    1
    16     8    38    1
    17     9    33    2
    18    10    36    2
    19    11    15    1
    20    11    26    1
    21    11    31    1
    22    12    13    1
    23    12    14    1
    24    12    15    1
    25    12    21    1
    26    13    19    1
    27    13    20    1
    28    13    46    1
    29    14    17    1
    30    14    22    1
    31    14    47    1
    32    15    16    1
    33    15    48    1
    34    16    18    1
    35    16    19    1
    36    16    49    1
    37    17    18    1
    38    17    24    1
    39    17    50    1
    40    18    25    1
    41    19    51    1
    42    20    26    1
    43    20    27    1
    44    20    30    1
    45    21    29    1
    46    21    52    1
    47    22    23    1
    48    22    53    1
    49    22    54    1
    50    23    24    1
    51    23    28    1
    52    24    55    1
    53    25    28    1
    54    25    56    1
    55    25    57    1
    56    26    58    1
    57    26    59    1
    58    27    29    1
    59    27    60    1
    60    28    61    1
    61    29    62    1
    62    29    63    1
    63    30    64    1
    64    30    65    1
    65    31    34    1
    66    31    66    1
    67    31    67    1
    68    32    70    1
    69    32    71    1
    70    32    72    1
    71    33    39    1
    72    34    73    1
    73    34    74    1
    74    34    75    1
    75    35    76    1
    76    35    77    1
    77    35    78    1
    78    36    40    1
    79    37    79    1
    80    37    80    1
    81    37    81    1
    82    38    82    1
    83    38    83    1
    84    38    84    1
    85    39    85    1
    86    39    86    1
    87    39    87    1
    88    40    41   ar
    89    40    42   ar
    90    41    43   ar
    91    41    88    1
    92    42    44   ar
    93    42    89    1
    94    43    45   ar
    95    43    90    1
    96    44    45   ar
    97    44    91    1
    98    45    92    1
