@<TRIPOS>MOLECULE
IMPHY001539
 26 26 0 0 0
SMALL
GASTEIGER

@<TRIPOS>ATOM
      1 O           2.8660    2.2500    0.0000 O.2     1  UNL1       -0.2923
      2 C           3.7320    0.7500    0.0000 C.ar    1  UNL1        0.0229
      3 C           2.8660    0.2500    0.0000 C.ar    1  UNL1       -0.0395
      4 C           4.5981    0.2500    0.0000 C.ar    1  UNL1       -0.0395
      5 C           3.7320   -1.2500    0.0000 C.ar    1  UNL1       -0.0499
      6 C           2.8660   -0.7500    0.0000 C.ar    1  UNL1       -0.0552
      7 C           4.5981   -0.7500    0.0000 C.ar    1  UNL1       -0.0552
      8 C           2.0000    0.7500    0.0000 C.3     1  UNL1       -0.0390
      9 C           5.4641    0.7500    0.0000 C.3     1  UNL1       -0.0390
     10 C           3.7320    1.7500    0.0000 C.2     1  UNL1        0.1606
     11 C           3.7320   -2.2500    0.0000 C.3     1  UNL1       -0.0397
     12 C           4.5981    2.2500    0.0000 C.3     1  UNL1       -0.0014
     13 H           2.3291   -1.0600    0.0000 H       1  UNL1        0.0623
     14 H           5.1350   -1.0600    0.0000 H       1  UNL1        0.0623
     15 H           2.3100    1.2869    0.0000 H       1  UNL1        0.0278
     16 H           1.4631    1.0600    0.0000 H       1  UNL1        0.0278
     17 H           1.6900    0.2131    0.0000 H       1  UNL1        0.0278
     18 H           5.7741    0.2131    0.0000 H       1  UNL1        0.0278
     19 H           6.0010    1.0600    0.0000 H       1  UNL1        0.0278
     20 H           5.1541    1.2869    0.0000 H       1  UNL1        0.0278
     21 H           3.1120   -2.2500    0.0000 H       1  UNL1        0.0278
     22 H           3.7320   -2.8700    0.0000 H       1  UNL1        0.0278
     23 H           4.3520   -2.2500    0.0000 H       1  UNL1        0.0278
     24 H           4.9081    1.7131    0.0000 H       1  UNL1        0.0309
     25 H           5.1350    2.5600    0.0000 H       1  UNL1        0.0309
     26 H           4.2881    2.7869    0.0000 H       1  UNL1        0.0309
@<TRIPOS>BOND
     1     1    10    2
     2     2     3   ar
     3     2     4   ar
     4     2    10    1
     5     3     6   ar
     6     3     8    1
     7     4     7   ar
     8     4     9    1
     9     5     6   ar
    10     5     7   ar
    11     5    11    1
    12     6    13    1
    13     7    14    1
    14     8    15    1
    15     8    16    1
    16     8    17    1
    17     9    18    1
    18     9    19    1
    19     9    20    1
    20    10    12    1
    21    11    21    1
    22    11    22    1
    23    11    23    1
    24    12    24    1
    25    12    25    1
    26    12    26    1
