@<TRIPOS>MOLECULE
IMPHY010727
 29 29 0 0 0
SMALL
GASTEIGER

@<TRIPOS>ATOM
      1 O           4.5981   -0.0950    0.0000 O.3     1  UNL1       -0.2868
      2 O           8.0622   -2.0950    0.0000 O.3     1  UNL1       -0.4714
      3 O           5.4641    1.4050    0.0000 O.2     1  UNL1       -0.2865
      4 O           2.0000   -6.5950    0.0000 O.co2   1  UNL1       -0.2406
      5 O           3.7321   -6.5950    0.0000 O.co2   1  UNL1       -0.2406
      6 O           8.0622    6.9050    0.0000 O.co2   1  UNL1       -0.2405
      7 O           7.1962    5.4050    0.0000 O.co2   1  UNL1       -0.2405
      8 C           4.5981   -2.0950    0.0000 C.3     1  UNL1        0.0259
      9 C           4.5981   -3.0950    0.0000 C.3     1  UNL1        0.0091
     10 C           5.4641   -1.5950    0.0000 C.ar    1  UNL1        0.0195
     11 C           3.7321   -1.5950    0.0000 C.3     1  UNL1        0.0048
     12 C           3.7321   -3.5950    0.0000 C.3     1  UNL1        0.0266
     13 C           5.4641   -0.5950    0.0000 C.ar    1  UNL1        0.1949
     14 C           6.3301   -2.0950    0.0000 C.ar    1  UNL1        0.0358
     15 C           6.3301   -0.0950    0.0000 C.ar    1  UNL1        0.0805
     16 C           7.1962   -1.5950    0.0000 C.ar    1  UNL1        0.1387
     17 C           7.1962   -0.5950    0.0000 C.ar    1  UNL1        0.0433
     18 C           3.7321   -4.5950    0.0000 C.2     1  UNL1       -0.0193
     19 C           6.3301    0.9050    0.0000 C.2     1  UNL1        0.1988
     20 C           2.8660   -5.0950    0.0000 C.2     1  UNL1        0.0816
     21 C           7.1962    1.4050    0.0000 C.2     1  UNL1        0.0421
     22 C           8.0622   -3.0950    0.0000 C.3     1  UNL1        0.2525
     23 C           2.8660   -6.0950    0.0000 C.2     1  UNL1        0.3876
     24 C           7.1962    2.4050    0.0000 C.2     1  UNL1        0.0033
     25 C           8.0622    2.9050    0.0000 C.2     1  UNL1        0.0001
     26 C           8.0622    3.9050    0.0000 C.2     1  UNL1        0.0002
     27 C           8.9282    4.4050    0.0000 C.2     1  UNL1        0.0068
     28 C           8.9282    5.4050    0.0000 C.2     1  UNL1        0.0861
     29 C           8.0622    5.9050    0.0000 C.2     1  UNL1        0.3880
@<TRIPOS>BOND
     1     1    13    1
     2     2    16    1
     3     2    22    1
     4     3    19    2
     5     4    23   ar
     6     5    23   ar
     7     6    29   ar
     8     7    29   ar
     9     8     9    1
    10     8    10    1
    11     8    11    1
    12     9    12    1
    13    10    13   ar
    14    10    14   ar
    15    12    18    1
    16    13    15   ar
    17    14    16   ar
    18    15    17   ar
    19    15    19    1
    20    16    17   ar
    21    18    20    2
    22    19    21    1
    23    20    23    1
    24    21    24    2
    25    24    25    1
    26    25    26    2
    27    26    27    1
    28    27    28    2
    29    28    29    1
