@<TRIPOS>MOLECULE
IMPHY000660
 47 49 0 0 0
SMALL
GASTEIGER

@<TRIPOS>ATOM
      1 O           3.4600   -0.2906    0.0000 O.3     1  UNL1       -0.3713
      2 O           6.7722    0.0695    0.0000 O.3     1  UNL1       -0.3946
      3 O           2.5369   -3.8784    0.0000 O.3     1  UNL1       -0.5033
      4 O           5.7189    4.9146    0.0000 O.3     1  UNL1       -0.4915
      5 O           4.2690   -4.8784    0.0000 O.3     1  UNL1       -0.5033
      6 O           3.7298    5.1236    0.0000 O.3     1  UNL1       -0.5033
      7 C           5.0780   -0.2906    0.0000 C.3     1  UNL1        0.0178
      8 C           4.7690    0.6604    0.0000 C.3     1  UNL1       -0.0060
      9 C           4.2690   -0.8784    0.0000 C.3     1  UNL1        0.0890
     10 C           3.7690    0.6604    0.0000 C.3     1  UNL1        0.0520
     11 C           5.3568    1.4694    0.0000 C.3     1  UNL1       -0.0222
     12 C           6.0291   -0.5997    0.0000 C.3     1  UNL1        0.0500
     13 C           4.2690   -1.8784    0.0000 C.ar    1  UNL1       -0.0149
     14 C           4.9500    2.3830    0.0000 C.ar    1  UNL1       -0.0433
     15 C           3.4030   -2.3784    0.0000 C.ar    1  UNL1       -0.0109
     16 C           5.1350   -2.3784    0.0000 C.ar    1  UNL1       -0.0524
     17 C           5.5378    3.1920    0.0000 C.ar    1  UNL1       -0.0131
     18 C           3.9555    2.4875    0.0000 C.ar    1  UNL1       -0.0549
     19 C           3.4030   -3.3784    0.0000 C.ar    1  UNL1        0.1586
     20 C           5.1350   -3.3784    0.0000 C.ar    1  UNL1       -0.0162
     21 C           5.1311    4.1055    0.0000 C.ar    1  UNL1        0.1615
     22 C           4.2690   -3.8784    0.0000 C.ar    1  UNL1        0.1582
     23 C           3.5488    3.4010    0.0000 C.ar    1  UNL1       -0.0163
     24 C           4.1366    4.2101    0.0000 C.ar    1  UNL1        0.1585
     25 C           6.7134    4.8100    0.0000 C.3     1  UNL1        0.0790
     26 H           5.1750   -0.9030    0.0000 H       1  UNL1        0.0355
     27 H           5.3814    0.5634    0.0000 H       1  UNL1        0.0330
     28 H           4.8214   -1.1599    0.0000 H       1  UNL1        0.0650
     29 H           3.8338    1.2770    0.0000 H       1  UNL1        0.0563
     30 H           3.1625    0.7893    0.0000 H       1  UNL1        0.0563
     31 H           5.7875    1.0234    0.0000 H       1  UNL1        0.0317
     32 H           5.8708    1.8161    0.0000 H       1  UNL1        0.0317
     33 H           5.7380   -1.1471    0.0000 H       1  UNL1        0.0561
     34 H           6.5176   -0.9814    0.0000 H       1  UNL1        0.0561
     35 H           2.8660   -2.0684    0.0000 H       1  UNL1        0.0659
     36 H           5.6720   -2.0684    0.0000 H       1  UNL1        0.0622
     37 H           7.3619   -0.1221    0.0000 H       1  UNL1        0.2094
     38 H           6.1544    3.1272    0.0000 H       1  UNL1        0.0658
     39 H           3.5911    1.9859    0.0000 H       1  UNL1        0.0621
     40 H           5.6720   -3.6884    0.0000 H       1  UNL1        0.0655
     41 H           2.9322    3.4659    0.0000 H       1  UNL1        0.0655
     42 H           2.0000   -3.5684    0.0000 H       1  UNL1        0.2923
     43 H           4.8059   -5.1884    0.0000 H       1  UNL1        0.2923
     44 H           3.1132    5.1884    0.0000 H       1  UNL1        0.2923
     45 H           6.6486    4.1934    0.0000 H       1  UNL1        0.0660
     46 H           7.3300    4.7452    0.0000 H       1  UNL1        0.0660
     47 H           6.7782    5.4266    0.0000 H       1  UNL1        0.0660
@<TRIPOS>BOND
     1     1     9    1
     2     1    10    1
     3     2    12    1
     4     2    37    1
     5     3    19    1
     6     3    42    1
     7     4    21    1
     8     4    25    1
     9     5    22    1
    10     5    43    1
    11     6    24    1
    12     6    44    1
    13     7     8    1
    14     7     9    1
    15     7    12    1
    16     7    26    1
    17     8    10    1
    18     8    11    1
    19     8    27    1
    20     9    13    1
    21     9    28    1
    22    10    29    1
    23    10    30    1
    24    11    14    1
    25    11    31    1
    26    11    32    1
    27    12    33    1
    28    12    34    1
    29    13    15   ar
    30    13    16   ar
    31    14    17   ar
    32    14    18   ar
    33    15    19   ar
    34    15    35    1
    35    16    20   ar
    36    16    36    1
    37    17    21   ar
    38    17    38    1
    39    18    23   ar
    40    18    39    1
    41    19    22   ar
    42    20    22   ar
    43    20    40    1
    44    21    24   ar
    45    23    24   ar
    46    23    41    1
    47    25    45    1
    48    25    46    1
    49    25    47    1
