@<TRIPOS>MOLECULE
IMPHY009120
 69 74 0 0 0
SMALL
GASTEIGER

@<TRIPOS>ATOM
      1 O           7.7848    3.2163    0.0000 O.3     1  UNL1       -0.3683
      2 O          10.1702    0.8804    0.0000 O.3     1  UNL1       -0.4576
      3 O           4.7810   -3.7263    0.0000 O.3     1  UNL1       -0.3875
      4 O           2.9755    0.4000    0.0000 O.2     1  UNL1       -0.2917
      5 O          11.9344    0.6293    0.0000 O.2     1  UNL1       -0.2452
      6 C           6.5251    0.3430    0.0000 C.3     1  UNL1       -0.0257
      7 C           6.5251   -0.6570    0.0000 C.3     1  UNL1       -0.0321
      8 C           5.6591   -1.1570    0.0000 C.3     1  UNL1       -0.0310
      9 C           7.4714    0.6477    0.0000 C.3     1  UNL1       -0.0271
     10 C           4.7931   -0.6570    0.0000 C.3     1  UNL1       -0.0216
     11 C           5.6591    0.8430    0.0000 C.3     1  UNL1       -0.0468
     12 C           7.4714   -0.9617    0.0000 C.3     1  UNL1       -0.0492
     13 C           8.0550   -0.1570    0.0000 C.3     1  UNL1       -0.0490
     14 C           4.7931    0.3430    0.0000 C.3     1  UNL1       -0.0482
     15 C           7.7820    1.5982    0.0000 C.3     1  UNL1        0.0230
     16 C           3.8831   -1.1638    0.0000 C.3     1  UNL1        0.0568
     17 C           5.6752   -2.1985    0.0000 C.3     1  UNL1       -0.0196
     18 C           6.5251    1.3430    0.0000 C.3     1  UNL1       -0.0590
     19 C           4.7771   -2.7263    0.0000 C.3     1  UNL1        0.0777
     20 C           3.8751   -2.2054    0.0000 C.2     1  UNL1       -0.0278
     21 C           9.2168    2.0342    0.0000 C.3     1  UNL1        0.1115
     22 C           7.1956    2.4083    0.0000 C.3     1  UNL1        0.0553
     23 C           3.8908   -0.1639    0.0000 C.3     1  UNL1       -0.0484
     24 C           2.9562   -0.5998    0.0000 C.2     1  UNL1        0.1662
     25 C          10.1857    3.7910    0.0000 C.3     1  UNL1        0.0180
     26 C           9.2185    3.0342    0.0000 C.3     1  UNL1        0.1010
     27 C           2.9396   -2.7552    0.0000 C.2     1  UNL1       -0.0590
     28 C           2.0084   -1.1277    0.0000 C.2     1  UNL1       -0.0183
     29 C          11.1005    2.2042    0.0000 C.2     1  UNL1        0.0608
     30 C           2.0000   -2.2127    0.0000 C.2     1  UNL1       -0.0584
     31 C           9.2203    4.0342    0.0000 C.3     1  UNL1       -0.0313
     32 C          11.1163    1.2043    0.0000 C.2     1  UNL1        0.3376
     33 C          11.9002    2.8046    0.0000 C.2     1  UNL1       -0.0859
     34 H           6.6151   -1.5022    0.0000 H       1  UNL1        0.0309
     35 H           6.3985   -1.5763    0.0000 H       1  UNL1        0.0308
     36 H           8.3111    0.7796    0.0000 H       1  UNL1        0.0311
     37 H           5.5292   -0.2320    0.0000 H       1  UNL1        0.0316
     38 H           6.0576    1.3179    0.0000 H       1  UNL1        0.0271
     39 H           5.2606    1.3179    0.0000 H       1  UNL1        0.0271
     40 H           7.2203   -1.5286    0.0000 H       1  UNL1        0.0268
     41 H           8.0087   -1.2710    0.0000 H       1  UNL1        0.0268
     42 H           8.5158   -0.5717    0.0000 H       1  UNL1        0.0268
     43 H           8.5158    0.2577    0.0000 H       1  UNL1        0.0268
     44 H           4.5810    0.9256    0.0000 H       1  UNL1        0.0269
     45 H           4.1825    0.2353    0.0000 H       1  UNL1        0.0269
     46 H           6.9423    1.4667    0.0000 H       1  UNL1        0.0362
     47 H           5.8932   -2.7789    0.0000 H       1  UNL1        0.0296
     48 H           6.2843   -2.0830    0.0000 H       1  UNL1        0.0296
     49 H           7.1451    1.3430    0.0000 H       1  UNL1        0.0235
     50 H           6.5251    1.9630    0.0000 H       1  UNL1        0.0235
     51 H           5.9051    1.3430    0.0000 H       1  UNL1        0.0235
     52 H           5.3158   -3.0332    0.0000 H       1  UNL1        0.0641
     53 H           9.2153    1.1842    0.0000 H       1  UNL1        0.0738
     54 H           6.7356    2.8239    0.0000 H       1  UNL1        0.0564
     55 H           6.7342    1.9942    0.0000 H       1  UNL1        0.0564
     56 H           4.5108   -0.1687    0.0000 H       1  UNL1        0.0242
     57 H           3.8956    0.4561    0.0000 H       1  UNL1        0.0242
     58 H           3.2708   -0.1591    0.0000 H       1  UNL1        0.0242
     59 H          10.8016    3.7201    0.0000 H       1  UNL1        0.0332
     60 H          10.0175    4.3878    0.0000 H       1  UNL1        0.0332
     61 H           2.9420   -3.3752    0.0000 H       1  UNL1        0.0618
     62 H           5.3191   -4.0342    0.0000 H       1  UNL1        0.2102
     63 H           1.4750   -0.8115    0.0000 H       1  UNL1        0.0653
     64 H           1.4619   -2.5206    0.0000 H       1  UNL1        0.0619
     65 H           9.8403    4.0331    0.0000 H       1  UNL1        0.0261
     66 H           9.2213    4.6542    0.0000 H       1  UNL1        0.0261
     67 H           8.6003    4.0353    0.0000 H       1  UNL1        0.0261
     68 H          12.4705    2.5614    0.0000 H       1  UNL1        0.0541
     69 H          11.8257    3.4201    0.0000 H       1  UNL1        0.0541
@<TRIPOS>BOND
     1     1    22    1
     2     1    26    1
     3     2    21    1
     4     2    32    1
     5    19     3    1
     6     3    62    1
     7     4    24    2
     8     5    32    2
     9     6     7    1
    10     6     9    1
    11     6    11    1
    12     6    18    1
    13     7     8    1
    14     7    12    1
    15     7    34    1
    16     8    10    1
    17     8    17    1
    18     8    35    1
    19     9    13    1
    20     9    15    1
    21     9    36    1
    22    10    14    1
    23    10    16    1
    24    10    37    1
    25    11    14    1
    26    11    38    1
    27    11    39    1
    28    12    13    1
    29    12    40    1
    30    12    41    1
    31    13    42    1
    32    13    43    1
    33    14    44    1
    34    14    45    1
    35    15    21    1
    36    15    22    1
    37    15    46    1
    38    16    20    1
    39    16    23    1
    40    16    24    1
    41    17    19    1
    42    17    47    1
    43    17    48    1
    44    18    49    1
    45    18    50    1
    46    18    51    1
    47    19    20    1
    48    19    52    1
    49    20    27    2
    50    21    25    1
    51    21    53    1
    52    22    54    1
    53    22    55    1
    54    23    56    1
    55    23    57    1
    56    23    58    1
    57    24    28    1
    58    25    26    1
    59    25    59    1
    60    25    60    1
    61    26    29    1
    62    26    31    1
    63    27    30    1
    64    27    61    1
    65    28    30    2
    66    28    63    1
    67    29    32    1
    68    29    33    2
    69    30    64    1
    70    31    65    1
    71    31    66    1
    72    31    67    1
    73    33    68    1
    74    33    69    1
