@<TRIPOS>MOLECULE
IMPHY006514
 19 18 0 0 0
SMALL
GASTEIGER

@<TRIPOS>ATOM
      1 S           2.8660   -0.0600    0.0000 S.O     1  UNL1        0.0431
      2 S           8.9282   -0.5600    0.0000 S.2     1  UNL1        0.0203
      3 O           2.8660   -1.0600    0.0000 O.2     1  UNL1       -0.2530
      4 N           7.1962    0.4400    0.0000 N.2     1  UNL1       -0.2343
      5 C           5.4641    0.4400    0.0000 C.3     1  UNL1       -0.0136
      6 C           6.3301   -0.0600    0.0000 C.3     1  UNL1        0.0530
      7 C           4.5981   -0.0600    0.0000 C.2     1  UNL1       -0.0737
      8 C           3.7320    0.4400    0.0000 C.2     1  UNL1       -0.0017
      9 C           2.0000    0.4400    0.0000 C.3     1  UNL1        0.0158
     10 C           8.0622   -0.0600    0.0000 C.1     1  UNL1        0.0358
     11 H           5.8626    0.9149    0.0000 H       1  UNL1        0.0326
     12 H           5.0656    0.9149    0.0000 H       1  UNL1        0.0326
     13 H           5.9316   -0.5349    0.0000 H       1  UNL1        0.0519
     14 H           6.7287   -0.5349    0.0000 H       1  UNL1        0.0519
     15 H           4.5981   -0.6800    0.0000 H       1  UNL1        0.0578
     16 H           3.7320    1.0600    0.0000 H       1  UNL1        0.0711
     17 H           2.3100    0.9769    0.0000 H       1  UNL1        0.0368
     18 H           1.4631    0.7500    0.0000 H       1  UNL1        0.0368
     19 H           1.6900   -0.0969    0.0000 H       1  UNL1        0.0368
@<TRIPOS>BOND
     1     1     3    2
     2     1     8    1
     3     1     9    1
     4     2    10    2
     5     4     6    1
     6     4    10    2
     7     5     6    1
     8     5     7    1
     9     5    11    1
    10     5    12    1
    11     6    13    1
    12     6    14    1
    13     7     8    2
    14     7    15    1
    15     8    16    1
    16     9    17    1
    17     9    18    1
    18     9    19    1
