@<TRIPOS>MOLECULE
IMPHY011076
 17 15 0 0 0
SMALL
GASTEIGER

@<TRIPOS>ATOM
      1 I           1.7690    0.0000    0.0000 I       1  UNL1       -0.1065
      2 S           3.1350    5.1200    0.0000 S.3     2  UNL2       -0.0914
      3 N           1.4030    5.1200    0.0000 N.pl3   2  UNL2       -0.2610
      4 N           2.2690    3.6200    0.0000 N.2     2  UNL2       -0.1662
      5 N           0.5369    4.6200    0.0000 N.3     2  UNL2       -0.2549
      6 N           3.1350    3.1200    0.0000 N.pl3   2  UNL2       -0.2803
      7 C           2.2690    4.6200    0.0000 C.2     2  UNL2        0.1838
      8 C           4.0010    4.6200    0.0000 C.3     2  UNL2       -0.0108
      9 H           1.4030    5.7400    0.0000 H       2  UNL2        0.1680
     10 H           3.6910    4.0831    0.0000 H       2  UNL2        0.0345
     11 H           4.5380    4.3100    0.0000 H       2  UNL2        0.0345
     12 H           4.3110    5.1569    0.0000 H       2  UNL2        0.0345
     13 H           0.0000    4.9300    0.0000 H       2  UNL2        0.1404
     14 H           0.5369    4.0000    0.0000 H       2  UNL2        0.1404
     15 H           3.1350    2.5000    0.0000 H       2  UNL2        0.1642
     16 H           3.6720    3.4300    0.0000 H       2  UNL2        0.1642
     17 H           2.7690    0.0000    0.0000 H       1  UNL1        0.1065
@<TRIPOS>BOND
     1     1    17    1
     2     2     7    1
     3     2     8    1
     4     3     5    1
     5     3     7    1
     6     3     9    1
     7     4     6    1
     8     4     7    2
     9     5    13    1
    10     5    14    1
    11     6    15    1
    12     6    16    1
    13     8    10    1
    14     8    11    1
    15     8    12    1
