@<TRIPOS>MOLECULE
IMPHY008603
 83 86 0 0 0
SMALL
GASTEIGER

@<TRIPOS>ATOM
      1 O           5.6962    3.6753    0.0000 O.3     1  UNL1       -0.4864
      2 O           6.0451   -0.2011    0.0000 O.2     1  UNL1       -0.2735
      3 O           6.1995    2.8112    0.0000 O.2     1  UNL1       -0.2736
      4 O           2.7045   -1.5578    0.0000 O.2     1  UNL1       -0.2741
      5 O           9.2138    2.7988    0.0000 O.2     1  UNL1       -0.2734
      6 N           5.0270    1.2001    0.0000 N.am    1  UNL1       -0.2849
      7 N           7.1962    1.0772    0.0000 N.am    1  UNL1       -0.3020
      8 N           4.4271   -1.3767    0.0000 N.am    1  UNL1       -0.3025
      9 N           2.9136   -3.5468    0.0000 N.3     1  UNL1       -0.2979
     10 N           9.6962    1.9432    0.0000 N.am    1  UNL1       -0.2904
     11 C           5.6962    1.9432    0.0000 C.3     1  UNL1        0.1390
     12 C           5.1962    2.8093    0.0000 C.3     1  UNL1        0.1285
     13 C           4.2180    2.6014    0.0000 C.3     1  UNL1        0.0024
     14 C           4.1135    1.6068    0.0000 C.3     1  UNL1        0.0191
     15 C           5.1315    0.2056    0.0000 C.2     1  UNL1        0.2369
     16 C           4.3225   -0.3822    0.0000 C.3     1  UNL1        0.1019
     17 C           6.6962    1.9432    0.0000 C.2     1  UNL1        0.2378
     18 C           3.4090    0.0245    0.0000 C.3     1  UNL1       -0.0197
     19 C           8.1962    1.0772    0.0000 C.3     1  UNL1        0.1037
     20 C           2.6000   -0.5632    0.0000 C.3     1  UNL1       -0.0605
     21 C           3.3044    1.0191    0.0000 C.3     1  UNL1       -0.0605
     22 C           6.6962    3.6753    0.0000 C.ar    1  UNL1        0.1211
     23 C           3.6180   -1.9645    0.0000 C.2     1  UNL1        0.2306
     24 C           8.6962    0.2112    0.0000 C.3     1  UNL1       -0.0006
     25 C           3.7226   -2.9590    0.0000 C.3     1  UNL1        0.0839
     26 C           8.6962    1.9432    0.0000 C.2     1  UNL1        0.2374
     27 C           7.1962    2.8093    0.0000 C.ar    1  UNL1       -0.0194
     28 C           7.1962    4.5413    0.0000 C.ar    1  UNL1       -0.0194
     29 C           8.1962   -0.6548    0.0000 C.ar    1  UNL1       -0.0451
     30 C           8.1962    2.8093    0.0000 C.ar    1  UNL1       -0.0511
     31 C           8.1962    4.5413    0.0000 C.ar    1  UNL1       -0.0511
     32 C           4.6361   -3.3658    0.0000 C.3     1  UNL1       -0.0410
     33 C           8.6962    3.6753    0.0000 C.ar    1  UNL1       -0.0236
     34 C           7.1962   -0.6548    0.0000 C.ar    1  UNL1       -0.0585
     35 C           8.6962   -1.5208    0.0000 C.ar    1  UNL1       -0.0585
     36 C           9.6962    3.6753    0.0000 C.2     1  UNL1       -0.0407
     37 C          10.1961    2.8093    0.0000 C.2     1  UNL1       -0.0031
     38 C           3.0181   -4.5413    0.0000 C.3     1  UNL1       -0.0123
     39 C           2.0000   -3.1401    0.0000 C.3     1  UNL1       -0.0123
     40 C           6.6962   -1.5208    0.0000 C.ar    1  UNL1       -0.0615
     41 C           8.1962   -2.3869    0.0000 C.ar    1  UNL1       -0.0615
     42 C           7.1962   -2.3869    0.0000 C.ar    1  UNL1       -0.0617
     43 H           5.9483    1.3768    0.0000 H       1  UNL1        0.0634
     44 H           4.8317    3.3109    0.0000 H       1  UNL1        0.0757
     45 H           4.1532    3.2180    0.0000 H       1  UNL1        0.0317
     46 H           3.5980    2.6014    0.0000 H       1  UNL1        0.0317
     47 H           3.5070    1.7358    0.0000 H       1  UNL1        0.0466
     48 H           3.9219    1.0172    0.0000 H       1  UNL1        0.0466
     49 H           3.8209   -0.7466    0.0000 H       1  UNL1        0.0597
     50 H           2.8426    0.2767    0.0000 H       1  UNL1        0.0318
     51 H           6.8862    0.5403    0.0000 H       1  UNL1        0.1495
     52 H           4.9934   -1.6289    0.0000 H       1  UNL1        0.1495
     53 H           7.8862    0.5403    0.0000 H       1  UNL1        0.0598
     54 H           2.2355   -0.0617    0.0000 H       1  UNL1        0.0233
     55 H           2.0984   -0.9277    0.0000 H       1  UNL1        0.0233
     56 H           2.9644   -1.0648    0.0000 H       1  UNL1        0.0233
     57 H           3.9210    1.0839    0.0000 H       1  UNL1        0.0233
     58 H           3.2396    1.6357    0.0000 H       1  UNL1        0.0233
     59 H           2.6878    0.9543    0.0000 H       1  UNL1        0.0233
     60 H           9.1711   -0.1873    0.0000 H       1  UNL1        0.0336
     61 H           9.1711    0.6097    0.0000 H       1  UNL1        0.0336
     62 H           3.7874   -3.5756    0.0000 H       1  UNL1        0.0555
     63 H           6.8862    2.2724    0.0000 H       1  UNL1        0.0654
     64 H           6.8862    5.0783    0.0000 H       1  UNL1        0.0654
     65 H           4.3839   -3.9322    0.0000 H       1  UNL1        0.0249
     66 H           5.2025   -3.6179    0.0000 H       1  UNL1        0.0249
     67 H           4.8883   -2.7994    0.0000 H       1  UNL1        0.0249
     68 H           8.5062    2.2724    0.0000 H       1  UNL1        0.0625
     69 H           8.5062    5.0783    0.0000 H       1  UNL1        0.0625
     70 H          10.0061    1.4063    0.0000 H       1  UNL1        0.1543
     71 H           6.8862   -0.1179    0.0000 H       1  UNL1        0.0620
     72 H           9.3162   -1.5208    0.0000 H       1  UNL1        0.0620
     73 H          10.0061    4.2122    0.0000 H       1  UNL1        0.0636
     74 H          10.8161    2.8093    0.0000 H       1  UNL1        0.0782
     75 H           2.4015   -4.6061    0.0000 H       1  UNL1        0.0391
     76 H           3.0829   -5.1579    0.0000 H       1  UNL1        0.0391
     77 H           3.6347   -4.4765    0.0000 H       1  UNL1        0.0391
     78 H           2.2522   -2.5737    0.0000 H       1  UNL1        0.0391
     79 H           1.4336   -2.8879    0.0000 H       1  UNL1        0.0391
     80 H           1.7478   -3.7065    0.0000 H       1  UNL1        0.0391
     81 H           6.0762   -1.5208    0.0000 H       1  UNL1        0.0618
     82 H           8.5062   -2.9238    0.0000 H       1  UNL1        0.0618
     83 H           6.8862   -2.9238    0.0000 H       1  UNL1        0.0618
@<TRIPOS>BOND
     1     1    12    1
     2     1    22    1
     3     2    15    2
     4     3    17    2
     5     4    23    2
     6     5    26    2
     7     6    11    1
     8     6    14    1
     9     6    15   am
    10     7    17   am
    11     7    19    1
    12     7    51    1
    13     8    16    1
    14     8    23   am
    15     8    52    1
    16     9    25    1
    17     9    38    1
    18     9    39    1
    19    10    26   am
    20    10    37    1
    21    10    70    1
    22    11    12    1
    23    11    17    1
    24    11    43    1
    25    12    13    1
    26    12    44    1
    27    13    14    1
    28    13    45    1
    29    13    46    1
    30    14    47    1
    31    14    48    1
    32    15    16    1
    33    16    18    1
    34    16    49    1
    35    18    20    1
    36    18    21    1
    37    18    50    1
    38    19    24    1
    39    19    26    1
    40    19    53    1
    41    20    54    1
    42    20    55    1
    43    20    56    1
    44    21    57    1
    45    21    58    1
    46    21    59    1
    47    22    27   ar
    48    22    28   ar
    49    23    25    1
    50    24    29    1
    51    24    60    1
    52    24    61    1
    53    25    32    1
    54    25    62    1
    55    27    30   ar
    56    27    63    1
    57    28    31   ar
    58    28    64    1
    59    29    34   ar
    60    29    35   ar
    61    30    33   ar
    62    30    68    1
    63    31    33   ar
    64    31    69    1
    65    32    65    1
    66    32    66    1
    67    32    67    1
    68    33    36    1
    69    34    40   ar
    70    34    71    1
    71    35    41   ar
    72    35    72    1
    73    36    37    2
    74    36    73    1
    75    37    74    1
    76    38    75    1
    77    38    76    1
    78    38    77    1
    79    39    78    1
    80    39    79    1
    81    39    80    1
    82    40    42   ar
    83    40    81    1
    84    41    42   ar
    85    41    82    1
    86    42    83    1
