@<TRIPOS>MOLECULE
IMPHY003234
 29 32 0 0 0
SMALL
GASTEIGER

@<TRIPOS>ATOM
      1 N           2.1187   -0.3137    0.0000 N.ar    1  UNL1       -0.2537
      2 C           3.8507   -0.3137    0.0000 C.ar    1  UNL1        0.0087
      3 C           2.9847    0.1863    0.0000 C.ar    1  UNL1        0.0792
      4 C           3.8507   -1.3137    0.0000 C.ar    1  UNL1       -0.0072
      5 C           2.9686    1.2278    0.0000 C.ar    1  UNL1        0.0081
      6 C           3.8667    1.7555    0.0000 C.ar    1  UNL1       -0.0158
      7 C           2.9847   -1.8137    0.0000 C.ar    1  UNL1        0.0008
      8 C           4.7607    0.1931    0.0000 C.ar    1  UNL1       -0.0514
      9 C           4.7688    1.2347    0.0000 C.ar    1  UNL1       -0.0533
     10 C           4.7607   -1.8206    0.0000 C.ar    1  UNL1       -0.0534
     11 C           2.0167    1.7484    0.0000 C.ar    1  UNL1       -0.0520
     12 C           2.1187   -1.3137    0.0000 C.ar    1  UNL1        0.0360
     13 C           3.8751    2.8405    0.0000 C.ar    1  UNL1       -0.0540
     14 C           2.9686   -2.8552    0.0000 C.ar    1  UNL1       -0.0526
     15 C           2.0000    2.8333    0.0000 C.ar    1  UNL1       -0.0611
     16 C           4.7688   -2.8622    0.0000 C.ar    1  UNL1       -0.0611
     17 C           2.9354    3.3830    0.0000 C.ar    1  UNL1       -0.0612
     18 C           3.8667   -3.3830    0.0000 C.ar    1  UNL1       -0.0611
     19 H           5.2941   -0.1231    0.0000 H       1  UNL1        0.0624
     20 H           5.3069    1.5426    0.0000 H       1  UNL1        0.0624
     21 H           5.2941   -1.5044    0.0000 H       1  UNL1        0.0624
     22 H           1.4859    1.4281    0.0000 H       1  UNL1        0.0624
     23 H           1.5818   -1.6237    0.0000 H       1  UNL1        0.0836
     24 H           4.4132    3.1484    0.0000 H       1  UNL1        0.0624
     25 H           2.4282   -3.1590    0.0000 H       1  UNL1        0.0624
     26 H           1.4595    3.1370    0.0000 H       1  UNL1        0.0618
     27 H           5.3069   -3.1701    0.0000 H       1  UNL1        0.0618
     28 H           2.9330    4.0030    0.0000 H       1  UNL1        0.0618
     29 H           3.8643   -4.0030    0.0000 H       1  UNL1        0.0618
@<TRIPOS>BOND
     1     1     3   ar
     2     1    12   ar
     3     2     3   ar
     4     2     4   ar
     5     2     8   ar
     6     3     5   ar
     7     4     7   ar
     8     4    10   ar
     9     5     6   ar
    10     5    11   ar
    11     6     9   ar
    12     6    13   ar
    13     7    12   ar
    14     7    14   ar
    15     8     9   ar
    16     8    19    1
    17     9    20    1
    18    10    16   ar
    19    10    21    1
    20    11    15   ar
    21    11    22    1
    22    12    23    1
    23    13    17   ar
    24    13    24    1
    25    14    18   ar
    26    14    25    1
    27    15    17   ar
    28    15    26    1
    29    16    18   ar
    30    16    27    1
    31    17    28    1
    32    18    29    1
