@<TRIPOS>MOLECULE
IMPHY009651
 40 42 0 0 0
SMALL
GASTEIGER

@<TRIPOS>ATOM
      1 O           7.7793    1.7459    0.0000 O.3     1  UNL1       -0.4575
      2 O           7.8742    3.5197    0.0000 O.2     1  UNL1       -0.2453
      3 O           2.3100   -2.6537    0.0000 O.3     1  UNL1       -0.3921
      4 C           6.1763   -0.4212    0.0000 C.3     1  UNL1       -0.0225
      5 C           5.3103    0.0788    0.0000 C.3     1  UNL1       -0.0312
      6 C           5.3100   -0.9216    0.0000 C.3     1  UNL1       -0.0318
      7 C           7.0423    0.0788    0.0000 C.3     1  UNL1       -0.0091
      8 C           5.3103    1.0788    0.0000 C.3     1  UNL1       -0.0390
      9 C           6.1763    1.5788    0.0000 C.3     1  UNL1        0.0277
     10 C           7.0423    1.0788    0.0000 C.3     1  UNL1        0.1109
     11 C           4.8100   -1.7877    0.0000 C.3     1  UNL1       -0.0471
     12 C           7.0423   -0.9212    0.0000 C.3     1  UNL1       -0.0589
     13 C           6.3855    2.5506    0.0000 C.2     1  UNL1        0.0361
     14 C           3.8100   -1.7877    0.0000 C.3     1  UNL1       -0.0268
     15 C           7.3742    2.6537    0.0000 C.2     1  UNL1        0.3353
     16 C           3.3100   -2.6537    0.0000 C.3     1  UNL1        0.0525
     17 C           5.7176    3.2949    0.0000 C.2     1  UNL1       -0.0883
     18 C           3.8100   -3.5197    0.0000 C.3     1  UNL1       -0.0389
     19 H           4.4603    0.0789    0.0000 H       1  UNL1        0.0309
     20 H           4.7112   -0.7611    0.0000 H       1  UNL1        0.0309
     21 H           7.2544   -0.5038    0.0000 H       1  UNL1        0.0306
     22 H           7.6529    0.1865    0.0000 H       1  UNL1        0.0306
     23 H           5.0982    1.6614    0.0000 H       1  UNL1        0.0275
     24 H           4.6997    0.9712    0.0000 H       1  UNL1        0.0275
     25 H           5.4893    2.0793    0.0000 H       1  UNL1        0.0387
     26 H           7.8193    0.7341    0.0000 H       1  UNL1        0.0740
     27 H           4.7023   -2.3982    0.0000 H       1  UNL1        0.0269
     28 H           5.3926   -1.9997    0.0000 H       1  UNL1        0.0269
     29 H           6.7323   -1.4581    0.0000 H       1  UNL1        0.0235
     30 H           7.5792   -1.2312    0.0000 H       1  UNL1        0.0235
     31 H           7.3523   -0.3843    0.0000 H       1  UNL1        0.0235
     32 H           3.9177   -1.1771    0.0000 H       1  UNL1        0.0290
     33 H           3.2274   -1.5756    0.0000 H       1  UNL1        0.0290
     34 H           3.0000   -2.1168    0.0000 H       1  UNL1        0.0590
     35 H           5.9102    3.8842    0.0000 H       1  UNL1        0.0540
     36 H           5.1110    3.1671    0.0000 H       1  UNL1        0.0540
     37 H           3.2731   -3.8297    0.0000 H       1  UNL1        0.0254
     38 H           4.1200   -4.0566    0.0000 H       1  UNL1        0.0254
     39 H           4.3469   -3.2097    0.0000 H       1  UNL1        0.0254
     40 H           2.0000   -3.1906    0.0000 H       1  UNL1        0.2098
@<TRIPOS>BOND
     1     1    10    1
     2     1    15    1
     3     2    15    2
     4     3    16    1
     5     3    40    1
     6     4     5    1
     7     4     6    1
     8     4     7    1
     9     4    12    1
    10     5     6    1
    11     5     8    1
    12     5    19    1
    13     6    11    1
    14     6    20    1
    15     7    10    1
    16     7    21    1
    17     7    22    1
    18     8     9    1
    19     8    23    1
    20     8    24    1
    21     9    10    1
    22     9    13    1
    23     9    25    1
    24    10    26    1
    25    11    14    1
    26    11    27    1
    27    11    28    1
    28    12    29    1
    29    12    30    1
    30    12    31    1
    31    13    15    1
    32    13    17    2
    33    14    16    1
    34    14    32    1
    35    14    33    1
    36    16    18    1
    37    16    34    1
    38    17    35    1
    39    17    36    1
    40    18    37    1
    41    18    38    1
    42    18    39    1
