@<TRIPOS>MOLECULE
IMPHY008125
 55 57 0 0 0
SMALL
GASTEIGER

@<TRIPOS>ATOM
      1 O           5.8207   -0.9139    0.0000 O.3     1  UNL1       -0.3875
      2 O           4.6208   -0.5777    0.0000 O.3     1  UNL1       -0.4571
      3 O           6.4562   -4.4223    0.0000 O.2     1  UNL1       -0.2967
      4 O           2.9303   -0.2007    0.0000 O.2     1  UNL1       -0.2450
      5 O           4.7550    4.0029    0.0000 O.3     1  UNL1       -0.5068
      6 C           5.1881   -2.1734    0.0000 C.3     1  UNL1        0.0382
      7 C           5.1931   -3.1733    0.0000 C.3     1  UNL1        0.0385
      8 C           6.1328   -1.8639    0.0000 C.3     1  UNL1        0.0821
      9 C           6.7204   -2.6657    0.0000 C.3     1  UNL1        0.0359
     10 C           4.4032   -1.5538    0.0000 C.3     1  UNL1        0.1134
     11 C           6.1408   -3.4734    0.0000 C.2     1  UNL1        0.1427
     12 C           6.9399   -1.2735    0.0000 C.3     1  UNL1       -0.0170
     13 C           4.4144   -3.8007    0.0000 C.3     1  UNL1       -0.0219
     14 C           5.1981   -4.1733    0.0000 C.3     1  UNL1       -0.0521
     15 C           3.4294   -1.7812    0.0000 C.3     1  UNL1        0.0057
     16 C           3.4384   -3.5831    0.0000 C.2     1  UNL1       -0.0840
     17 C           3.0000   -2.6843    0.0000 C.2     1  UNL1       -0.0730
     18 C           7.8548   -1.6772    0.0000 C.3     1  UNL1       -0.0600
     19 C           6.8321   -0.2793    0.0000 C.3     1  UNL1       -0.0600
     20 C           2.0000   -2.6892    0.0000 C.3     1  UNL1       -0.0437
     21 C           3.8844    0.0988    0.0000 C.2     1  UNL1        0.3395
     22 C           4.1021    1.0748    0.0000 C.ar    1  UNL1        0.0592
     23 C           5.0562    1.3743    0.0000 C.ar    1  UNL1       -0.0443
     24 C           3.3656    1.7513    0.0000 C.ar    1  UNL1       -0.0443
     25 C           5.2738    2.3503    0.0000 C.ar    1  UNL1       -0.0194
     26 C           3.5833    2.7273    0.0000 C.ar    1  UNL1       -0.0194
     27 C           4.5374    3.0268    0.0000 C.ar    1  UNL1        0.1169
     28 H           5.3368   -1.3364    0.0000 H       1  UNL1        0.0374
     29 H           7.1833   -3.0781    0.0000 H       1  UNL1        0.0370
     30 H           7.1792   -2.2487    0.0000 H       1  UNL1        0.0370
     31 H           3.9626   -1.1176    0.0000 H       1  UNL1        0.0741
     32 H           7.4403   -0.9074    0.0000 H       1  UNL1        0.0323
     33 H           4.1482   -4.3606    0.0000 H       1  UNL1        0.0317
     34 H           4.9010   -4.1849    0.0000 H       1  UNL1        0.0317
     35 H           4.5781   -4.1764    0.0000 H       1  UNL1        0.0239
     36 H           5.2012   -4.7933    0.0000 H       1  UNL1        0.0239
     37 H           5.8181   -4.1702    0.0000 H       1  UNL1        0.0239
     38 H           3.4263   -1.1611    0.0000 H       1  UNL1        0.0346
     39 H           2.8242   -1.6462    0.0000 H       1  UNL1        0.0346
     40 H           3.0542   -4.0697    0.0000 H       1  UNL1        0.0572
     41 H           6.2340   -0.4518    0.0000 H       1  UNL1        0.2102
     42 H           7.6044   -2.2445    0.0000 H       1  UNL1        0.0233
     43 H           8.4220   -1.9276    0.0000 H       1  UNL1        0.0233
     44 H           8.1051   -1.1100    0.0000 H       1  UNL1        0.0233
     45 H           7.4485   -0.2125    0.0000 H       1  UNL1        0.0233
     46 H           6.7653    0.3371    0.0000 H       1  UNL1        0.0233
     47 H           6.2157   -0.3461    0.0000 H       1  UNL1        0.0233
     48 H           1.9969   -2.0693    0.0000 H       1  UNL1        0.0274
     49 H           1.3800   -2.6923    0.0000 H       1  UNL1        0.0274
     50 H           2.0031   -3.3092    0.0000 H       1  UNL1        0.0274
     51 H           5.5127    0.9549    0.0000 H       1  UNL1        0.0627
     52 H           2.7741    1.5656    0.0000 H       1  UNL1        0.0627
     53 H           5.8653    2.5360    0.0000 H       1  UNL1        0.0654
     54 H           3.1267    3.1468    0.0000 H       1  UNL1        0.0654
     55 H           4.2984    4.4223    0.0000 H       1  UNL1        0.2921
@<TRIPOS>BOND
     1     8     1    1
     2     1    41    1
     3    10     2    1
     4     2    21    1
     5     3    11    2
     6     4    21    2
     7     5    27    1
     8     5    55    1
     9     6     7    1
    10     6     8    1
    11     6    10    1
    12     6    28    1
    13     7    11    1
    14     7    13    1
    15     7    14    1
    16     8     9    1
    17     8    12    1
    18     9    11    1
    19     9    29    1
    20     9    30    1
    21    10    15    1
    22    10    31    1
    23    12    18    1
    24    12    19    1
    25    12    32    1
    26    13    16    1
    27    13    33    1
    28    13    34    1
    29    14    35    1
    30    14    36    1
    31    14    37    1
    32    15    17    1
    33    15    38    1
    34    15    39    1
    35    16    17    2
    36    16    40    1
    37    17    20    1
    38    18    42    1
    39    18    43    1
    40    18    44    1
    41    19    45    1
    42    19    46    1
    43    19    47    1
    44    20    48    1
    45    20    49    1
    46    20    50    1
    47    21    22    1
    48    22    23   ar
    49    22    24   ar
    50    23    25   ar
    51    23    51    1
    52    24    26   ar
    53    24    52    1
    54    25    27   ar
    55    25    53    1
    56    26    27   ar
    57    26    54    1
