@<TRIPOS>MOLECULE
IMPHY002651
 57 59 0 0 0
SMALL
GASTEIGER

@<TRIPOS>ATOM
      1 O           6.0290   -0.6117    0.0000 O.2     1  UNL1       -0.4616
      2 O           8.6709   -0.0496    0.0000 O.3     1  UNL1       -0.5058
      3 O           4.2690    2.4229    0.0000 O.3     1  UNL1       -0.5058
      4 O           2.5369   -0.5771    0.0000 O.3     1  UNL1       -0.5062
      5 O           6.0174    2.4575    0.0000 O.2     1  UNL1       -0.2863
      6 O          10.3914    2.9571    0.0000 O.3     1  UNL1       -0.5064
      7 C           5.1350   -0.0771    0.0000 C.ar    1  UNL1        0.1489
      8 C           5.1350    0.9229    0.0000 C.ar    1  UNL1        0.1063
      9 C           4.2690   -0.5771    0.0000 C.ar    1  UNL1        0.0408
     10 C           6.9350    0.9437    0.0000 C.ar    1  UNL1        0.0679
     11 C           7.7991    1.4471    0.0000 C.ar    1  UNL1        0.0307
     12 C           6.0290    1.4576    0.0000 C.ar    1  UNL1        0.2038
     13 C           4.2690   -1.5771    0.0000 C.3     1  UNL1       -0.0023
     14 C           9.5312    1.4538    0.0000 C.ar    1  UNL1        0.0397
     15 C           8.6671    0.9504    0.0000 C.ar    1  UNL1        0.1317
     16 C           4.2690    1.4229    0.0000 C.ar    1  UNL1        0.1347
     17 C           3.4030   -0.0771    0.0000 C.ar    1  UNL1        0.1273
     18 C           6.9350   -0.0979    0.0000 C.ar    1  UNL1        0.1040
     19 C          10.3991    0.9571    0.0000 C.3     1  UNL1       -0.0023
     20 C           3.4030    0.9229    0.0000 C.ar    1  UNL1        0.0225
     21 C           7.7953    2.4471    0.0000 C.ar    1  UNL1       -0.0469
     22 C           9.5273    2.4537    0.0000 C.ar    1  UNL1        0.1238
     23 C           3.4030   -2.0771    0.0000 C.2     1  UNL1       -0.0807
     24 C           8.6594    2.9504    0.0000 C.ar    1  UNL1       -0.0191
     25 C          11.2632    1.4604    0.0000 C.2     1  UNL1       -0.0807
     26 C           3.4030   -3.0771    0.0000 C.2     1  UNL1       -0.0793
     27 C          12.1311    0.9638    0.0000 C.2     1  UNL1       -0.0793
     28 C           2.5369   -3.5771    0.0000 C.3     1  UNL1       -0.0440
     29 C           4.2690   -3.5771    0.0000 C.3     1  UNL1       -0.0440
     30 C          12.9952    1.4671    0.0000 C.3     1  UNL1       -0.0440
     31 C          12.1350   -0.0362    0.0000 C.3     1  UNL1       -0.0440
     32 H           4.4810   -2.1597    0.0000 H       1  UNL1        0.0358
     33 H           4.8796   -1.4694    0.0000 H       1  UNL1        0.0358
     34 H           7.4708   -0.4100    0.0000 H       1  UNL1        0.1037
     35 H          10.0024    0.4806    0.0000 H       1  UNL1        0.0358
     36 H          10.7995    0.4837    0.0000 H       1  UNL1        0.0358
     37 H           2.8660    1.2329    0.0000 H       1  UNL1        0.0691
     38 H           7.2571    2.7550    0.0000 H       1  UNL1        0.0626
     39 H           2.8660   -1.7671    0.0000 H       1  UNL1        0.0575
     40 H           8.6570    3.5704    0.0000 H       1  UNL1        0.0654
     41 H          11.2608    2.0804    0.0000 H       1  UNL1        0.0575
     42 H           9.2090   -0.3575    0.0000 H       1  UNL1        0.2922
     43 H           3.7320    2.7329    0.0000 H       1  UNL1        0.2922
     44 H           2.0000   -0.2671    0.0000 H       1  UNL1        0.2921
     45 H           2.2269   -3.0401    0.0000 H       1  UNL1        0.0274
     46 H           2.0000   -3.8871    0.0000 H       1  UNL1        0.0274
     47 H           2.8469   -4.1140    0.0000 H       1  UNL1        0.0274
     48 H           3.9590   -4.1140    0.0000 H       1  UNL1        0.0274
     49 H           4.8059   -3.8871    0.0000 H       1  UNL1        0.0274
     50 H           4.5790   -3.0401    0.0000 H       1  UNL1        0.0274
     51 H          10.3890    3.5771    0.0000 H       1  UNL1        0.2921
     52 H          13.3073    0.9314    0.0000 H       1  UNL1        0.0274
     53 H          13.5310    1.7792    0.0000 H       1  UNL1        0.0274
     54 H          12.6832    2.0028    0.0000 H       1  UNL1        0.0274
     55 H          11.5150   -0.0386    0.0000 H       1  UNL1        0.0274
     56 H          12.1374   -0.6562    0.0000 H       1  UNL1        0.0274
     57 H          12.7550   -0.0338    0.0000 H       1  UNL1        0.0274
@<TRIPOS>BOND
     1     1     7   ar
     2     1    18   ar
     3     2    15    1
     4     2    42    1
     5     3    16    1
     6     3    43    1
     7     4    17    1
     8     4    44    1
     9     5    12    2
    10     6    22    1
    11     6    51    1
    12     7     8   ar
    13     7     9   ar
    14     8    12   ar
    15     8    16   ar
    16     9    13    1
    17     9    17   ar
    18    10    11    1
    19    10    12   ar
    20    10    18   ar
    21    11    15   ar
    22    11    21   ar
    23    13    23    1
    24    13    32    1
    25    13    33    1
    26    14    15   ar
    27    14    19    1
    28    14    22   ar
    29    16    20   ar
    30    17    20   ar
    31    18    34    1
    32    19    25    1
    33    19    35    1
    34    19    36    1
    35    20    37    1
    36    21    24   ar
    37    21    38    1
    38    22    24   ar
    39    23    26    2
    40    23    39    1
    41    24    40    1
    42    25    27    2
    43    25    41    1
    44    26    28    1
    45    26    29    1
    46    27    30    1
    47    27    31    1
    48    28    45    1
    49    28    46    1
    50    28    47    1
    51    29    48    1
    52    29    49    1
    53    29    50    1
    54    30    52    1
    55    30    53    1
    56    30    54    1
    57    31    55    1
    58    31    56    1
    59    31    57    1
