@<TRIPOS>MOLECULE
IMPHY012013
 40 41 0 0 0
SMALL
GASTEIGER

@<TRIPOS>ATOM
      1 O           3.7143   -3.3527    0.0000 O.3     1  UNL1       -0.3907
      2 C           6.0315    1.7235    0.0000 C.3     1  UNL1       -0.0314
      3 C           4.6588    1.1315    0.0000 C.3     1  UNL1       -0.0079
      4 C           6.2903    2.6894    0.0000 C.3     1  UNL1       -0.0193
      5 C           5.5537    3.6720    0.0000 C.3     1  UNL1       -0.0429
      6 C           7.4304    1.2147    0.0000 C.3     1  UNL1       -0.0489
      7 C           4.3167    2.0712    0.0000 C.2     1  UNL1       -0.0673
      8 C           7.6892    2.1806    0.0000 C.3     1  UNL1       -0.0462
      9 C           3.7841    0.6467    0.0000 C.3     1  UNL1       -0.0402
     10 C           4.8496    0.1499    0.0000 C.3     1  UNL1       -0.0556
     11 C           3.4104    2.4938    0.0000 C.2     1  UNL1       -0.0987
     12 C           3.7667   -0.3532    0.0000 C.3     1  UNL1       -0.0337
     13 C           2.8921   -0.8380    0.0000 C.2     1  UNL1       -0.0829
     14 C           2.8746   -1.8378    0.0000 C.2     1  UNL1       -0.0515
     15 C           3.7318   -2.3529    0.0000 C.3     1  UNL1        0.0650
     16 C           2.0000   -2.3226    0.0000 C.3     1  UNL1       -0.0416
     17 H           6.0563    0.8739    0.0000 H       1  UNL1        0.0309
     18 H           6.2711    1.8396    0.0000 H       1  UNL1        0.0346
     19 H           5.8715    4.2044    0.0000 H       1  UNL1        0.0274
     20 H           4.9405    3.7640    0.0000 H       1  UNL1        0.0274
     21 H           7.2355    0.6261    0.0000 H       1  UNL1        0.0268
     22 H           8.0244    1.0369    0.0000 H       1  UNL1        0.0268
     23 H           8.2832    2.0028    0.0000 H       1  UNL1        0.0271
     24 H           7.8842    2.7692    0.0000 H       1  UNL1        0.0271
     25 H           3.5823    1.2329    0.0000 H       1  UNL1        0.0277
     26 H           3.1718    0.5497    0.0000 H       1  UNL1        0.0277
     27 H           4.2410    0.0316    0.0000 H       1  UNL1        0.0238
     28 H           4.9679   -0.4588    0.0000 H       1  UNL1        0.0238
     29 H           5.4582    0.2682    0.0000 H       1  UNL1        0.0238
     30 H           3.3564    3.1114    0.0000 H       1  UNL1        0.0535
     31 H           2.9026    2.1382    0.0000 H       1  UNL1        0.0535
     32 H           3.9685   -0.9394    0.0000 H       1  UNL1        0.0308
     33 H           4.3791   -0.2562    0.0000 H       1  UNL1        0.0308
     34 H           2.3606   -0.5187    0.0000 H       1  UNL1        0.0572
     35 H           4.3404   -2.4712    0.0000 H       1  UNL1        0.0604
     36 H           3.9540   -1.7740    0.0000 H       1  UNL1        0.0604
     37 H           1.6994   -1.7804    0.0000 H       1  UNL1        0.0275
     38 H           1.4577   -2.6232    0.0000 H       1  UNL1        0.0275
     39 H           2.3006   -2.8649    0.0000 H       1  UNL1        0.0275
     40 H           4.2458   -3.6720    0.0000 H       1  UNL1        0.2098
@<TRIPOS>BOND
     1     1    15    1
     2     1    40    1
     3     2     3    1
     4     2     5    1
     5     2     6    1
     6     2    17    1
     7     3     7    1
     8     3     9    1
     9     3    10    1
    10     4     5    1
    11     4     7    1
    12     4     8    1
    13     4    18    1
    14     5    19    1
    15     5    20    1
    16     6     8    1
    17     6    21    1
    18     6    22    1
    19     7    11    2
    20     8    23    1
    21     8    24    1
    22     9    12    1
    23     9    25    1
    24     9    26    1
    25    10    27    1
    26    10    28    1
    27    10    29    1
    28    11    30    1
    29    11    31    1
    30    12    13    1
    31    12    32    1
    32    12    33    1
    33    13    14    2
    34    13    34    1
    35    14    15    1
    36    14    16    1
    37    15    35    1
    38    15    36    1
    39    16    37    1
    40    16    38    1
    41    16    39    1
