@<TRIPOS>MOLECULE
IMPHY017347
 48 47 0 0 0
SMALL
GASTEIGER

@<TRIPOS>ATOM
      1 O           2.5369   -0.7500    0.0000 O.3     1  UNL1       -0.4806
      2 O           3.4030   -2.2500    0.0000 O.2     1  UNL1       -0.2510
      3 C           7.7331   -0.7500    0.0000 C.3     1  UNL1       -0.0531
      4 C           8.5991   -1.2500    0.0000 C.3     1  UNL1       -0.0530
      5 C           6.8671   -1.2500    0.0000 C.3     1  UNL1       -0.0530
      6 C           9.4651   -0.7500    0.0000 C.3     1  UNL1       -0.0528
      7 C           6.0010   -0.7500    0.0000 C.3     1  UNL1       -0.0526
      8 C          10.3312   -1.2500    0.0000 C.3     1  UNL1       -0.0496
      9 C           5.1350   -1.2500    0.0000 C.3     1  UNL1       -0.0430
     10 C          11.1972   -0.7500    0.0000 C.3     1  UNL1       -0.0348
     11 C           4.2690   -0.7500    0.0000 C.3     1  UNL1        0.0448
     12 C          12.0632   -1.2500    0.0000 C.2     1  UNL1       -0.0879
     13 C          12.9292    0.2500    0.0000 C.3     1  UNL1       -0.0348
     14 C          13.7953    0.7500    0.0000 C.3     1  UNL1       -0.0499
     15 C          12.9292   -0.7500    0.0000 C.2     1  UNL1       -0.0879
     16 C          13.7953    1.7500    0.0000 C.3     1  UNL1       -0.0556
     17 C           3.4030   -1.2500    0.0000 C.2     1  UNL1        0.3047
     18 C          14.6613    2.2500    0.0000 C.3     1  UNL1       -0.0653
     19 H           8.1316   -0.2751    0.0000 H       1  UNL1        0.0265
     20 H           7.3346   -0.2751    0.0000 H       1  UNL1        0.0265
     21 H           8.2006   -1.7250    0.0000 H       1  UNL1        0.0265
     22 H           8.9976   -1.7250    0.0000 H       1  UNL1        0.0265
     23 H           6.4685   -1.7250    0.0000 H       1  UNL1        0.0265
     24 H           7.2656   -1.7250    0.0000 H       1  UNL1        0.0265
     25 H           9.8637   -0.2751    0.0000 H       1  UNL1        0.0265
     26 H           9.0666   -0.2751    0.0000 H       1  UNL1        0.0265
     27 H           6.3996   -0.2751    0.0000 H       1  UNL1        0.0265
     28 H           5.6025   -0.2751    0.0000 H       1  UNL1        0.0265
     29 H           9.9326   -1.7250    0.0000 H       1  UNL1        0.0268
     30 H          10.7297   -1.7250    0.0000 H       1  UNL1        0.0268
     31 H           4.7365   -1.7250    0.0000 H       1  UNL1        0.0270
     32 H           5.5335   -1.7250    0.0000 H       1  UNL1        0.0270
     33 H          11.5957   -0.2751    0.0000 H       1  UNL1        0.0307
     34 H          10.7987   -0.2751    0.0000 H       1  UNL1        0.0307
     35 H           4.6675   -0.2751    0.0000 H       1  UNL1        0.0377
     36 H           3.8705   -0.2751    0.0000 H       1  UNL1        0.0377
     37 H          12.0632   -1.8700    0.0000 H       1  UNL1        0.0569
     38 H          12.7172    0.8326    0.0000 H       1  UNL1        0.0307
     39 H          12.3187    0.1423    0.0000 H       1  UNL1        0.0307
     40 H          14.0073    0.1674    0.0000 H       1  UNL1        0.0268
     41 H          14.4058    0.8577    0.0000 H       1  UNL1        0.0268
     42 H          13.4662   -1.0600    0.0000 H       1  UNL1        0.0569
     43 H          13.5832    2.3326    0.0000 H       1  UNL1        0.0263
     44 H          13.1847    1.6423    0.0000 H       1  UNL1        0.0263
     45 H          14.9713    1.7131    0.0000 H       1  UNL1        0.0230
     46 H          15.1982    2.5600    0.0000 H       1  UNL1        0.0230
     47 H          14.3513    2.7869    0.0000 H       1  UNL1        0.0230
     48 H           2.0000   -1.0600    0.0000 H       1  UNL1        0.2951
@<TRIPOS>BOND
     1     1    17    1
     2     1    48    1
     3     2    17    2
     4     3     4    1
     5     3     5    1
     6     3    19    1
     7     3    20    1
     8     4     6    1
     9     4    21    1
    10     4    22    1
    11     5     7    1
    12     5    23    1
    13     5    24    1
    14     6     8    1
    15     6    25    1
    16     6    26    1
    17     7     9    1
    18     7    27    1
    19     7    28    1
    20     8    10    1
    21     8    29    1
    22     8    30    1
    23     9    11    1
    24     9    31    1
    25     9    32    1
    26    10    12    1
    27    10    33    1
    28    10    34    1
    29    11    17    1
    30    11    35    1
    31    11    36    1
    32    12    15    2
    33    12    37    1
    34    13    14    1
    35    13    15    1
    36    13    38    1
    37    13    39    1
    38    14    16    1
    39    14    40    1
    40    14    41    1
    41    15    42    1
    42    16    18    1
    43    16    43    1
    44    16    44    1
    45    18    45    1
    46    18    46    1
    47    18    47    1
