@<TRIPOS>MOLECULE
IMPHY005763
 18 18 0 0 0
SMALL
GASTEIGER

@<TRIPOS>ATOM
      1 O           2.5369   -0.1550    0.0000 O.3     1  UNL1       -0.3904
      2 N           5.1350    1.3450    0.0000 N.pl3   1  UNL1       -0.3577
      3 C           4.2690   -0.1550    0.0000 C.ar    1  UNL1       -0.0016
      4 C           5.1350    0.3450    0.0000 C.ar    1  UNL1        0.0300
      5 C           3.4030    0.3450    0.0000 C.3     1  UNL1        0.0709
      6 C           4.2690   -1.1550    0.0000 C.ar    1  UNL1       -0.0546
      7 C           6.0010   -0.1550    0.0000 C.ar    1  UNL1       -0.0407
      8 C           5.1350   -1.6550    0.0000 C.ar    1  UNL1       -0.0613
      9 C           6.0010   -1.1550    0.0000 C.ar    1  UNL1       -0.0600
     10 H           3.8015    0.8199    0.0000 H       1  UNL1        0.0608
     11 H           3.0044    0.8199    0.0000 H       1  UNL1        0.0608
     12 H           3.7320   -1.4650    0.0000 H       1  UNL1        0.0622
     13 H           6.5380    0.1550    0.0000 H       1  UNL1        0.0636
     14 H           5.1350   -2.2750    0.0000 H       1  UNL1        0.0618
     15 H           6.5380   -1.4650    0.0000 H       1  UNL1        0.0618
     16 H           5.6720    1.6550    0.0000 H       1  UNL1        0.1423
     17 H           4.5981    1.6550    0.0000 H       1  UNL1        0.1423
     18 H           2.0000    0.1550    0.0000 H       1  UNL1        0.2098
@<TRIPOS>BOND
     1     1     5    1
     2     1    18    1
     3     2     4    1
     4     2    16    1
     5     2    17    1
     6     3     4   ar
     7     3     5    1
     8     3     6   ar
     9     4     7   ar
    10     5    10    1
    11     5    11    1
    12     6     8   ar
    13     6    12    1
    14     7     9   ar
    15     7    13    1
    16     8     9   ar
    17     8    14    1
    18     9    15    1
