@<TRIPOS>MOLECULE
IMPHY004399
 53 52 0 0 0
SMALL
GASTEIGER

@<TRIPOS>ATOM
      1 O           2.8660   -1.8100    0.0000 O.3     1  UNL1       -0.4679
      2 O           3.7320   -3.3100    0.0000 O.2     1  UNL1       -0.2509
      3 C           7.1962   -2.3100    0.0000 C.3     1  UNL1       -0.0530
      4 C           8.0622   -1.8100    0.0000 C.3     1  UNL1       -0.0528
      5 C           6.3301   -1.8100    0.0000 C.3     1  UNL1       -0.0526
      6 C           8.9282   -2.3100    0.0000 C.3     1  UNL1       -0.0496
      7 C           5.4641   -2.3100    0.0000 C.3     1  UNL1       -0.0430
      8 C           9.7942   -1.8100    0.0000 C.3     1  UNL1       -0.0348
      9 C           4.5981   -1.8100    0.0000 C.3     1  UNL1        0.0449
     10 C          10.6603   -2.3100    0.0000 C.2     1  UNL1       -0.0876
     11 C           3.7320   -2.3100    0.0000 C.2     1  UNL1        0.3068
     12 C          11.5263   -1.8100    0.0000 C.2     1  UNL1       -0.0842
     13 C          11.5263   -0.8100    0.0000 C.3     1  UNL1       -0.0165
     14 C          12.3923   -0.3100    0.0000 C.2     1  UNL1       -0.0839
     15 C          12.3923    0.6900    0.0000 C.2     1  UNL1       -0.0839
     16 C          11.5263    1.1900    0.0000 C.3     1  UNL1       -0.0165
     17 C           2.0000   -2.3100    0.0000 C.3     1  UNL1        0.0817
     18 C          11.5263    2.1900    0.0000 C.2     1  UNL1       -0.0842
     19 C          10.6603    2.6900    0.0000 C.2     1  UNL1       -0.0879
     20 C           9.7942    2.1900    0.0000 C.3     1  UNL1       -0.0376
     21 C           8.9282    2.6900    0.0000 C.3     1  UNL1       -0.0618
     22 H           6.7976   -2.7849    0.0000 H       1  UNL1        0.0265
     23 H           7.5947   -2.7849    0.0000 H       1  UNL1        0.0265
     24 H           8.4607   -1.3350    0.0000 H       1  UNL1        0.0265
     25 H           7.6636   -1.3350    0.0000 H       1  UNL1        0.0265
     26 H           6.7287   -1.3350    0.0000 H       1  UNL1        0.0265
     27 H           5.9316   -1.3350    0.0000 H       1  UNL1        0.0265
     28 H           8.5297   -2.7849    0.0000 H       1  UNL1        0.0268
     29 H           9.3267   -2.7849    0.0000 H       1  UNL1        0.0268
     30 H           5.0656   -2.7849    0.0000 H       1  UNL1        0.0270
     31 H           5.8626   -2.7849    0.0000 H       1  UNL1        0.0270
     32 H          10.1928   -1.3350    0.0000 H       1  UNL1        0.0307
     33 H           9.3957   -1.3350    0.0000 H       1  UNL1        0.0307
     34 H           4.9966   -1.3350    0.0000 H       1  UNL1        0.0377
     35 H           4.1996   -1.3350    0.0000 H       1  UNL1        0.0377
     36 H          10.6603   -2.9300    0.0000 H       1  UNL1        0.0569
     37 H          12.0632   -2.1200    0.0000 H       1  UNL1        0.0572
     38 H          11.3142   -0.2274    0.0000 H       1  UNL1        0.0350
     39 H          10.9157   -0.9177    0.0000 H       1  UNL1        0.0350
     40 H          12.9292   -0.6200    0.0000 H       1  UNL1        0.0572
     41 H          12.9292    1.0000    0.0000 H       1  UNL1        0.0572
     42 H          10.9157    1.2977    0.0000 H       1  UNL1        0.0350
     43 H          11.3142    0.6074    0.0000 H       1  UNL1        0.0350
     44 H           1.6900   -1.7731    0.0000 H       1  UNL1        0.0661
     45 H           1.4631   -2.6200    0.0000 H       1  UNL1        0.0661
     46 H           2.3100   -2.8469    0.0000 H       1  UNL1        0.0661
     47 H          12.0632    2.5000    0.0000 H       1  UNL1        0.0572
     48 H          10.6603    3.3100    0.0000 H       1  UNL1        0.0569
     49 H           9.3957    1.7150    0.0000 H       1  UNL1        0.0305
     50 H          10.1928    1.7150    0.0000 H       1  UNL1        0.0305
     51 H           9.2382    3.2269    0.0000 H       1  UNL1        0.0233
     52 H           8.3913    3.0000    0.0000 H       1  UNL1        0.0233
     53 H           8.6182    2.1531    0.0000 H       1  UNL1        0.0233
@<TRIPOS>BOND
     1     1    11    1
     2     1    17    1
     3     2    11    2
     4     3     4    1
     5     3     5    1
     6     3    22    1
     7     3    23    1
     8     4     6    1
     9     4    24    1
    10     4    25    1
    11     5     7    1
    12     5    26    1
    13     5    27    1
    14     6     8    1
    15     6    28    1
    16     6    29    1
    17     7     9    1
    18     7    30    1
    19     7    31    1
    20     8    10    1
    21     8    32    1
    22     8    33    1
    23     9    11    1
    24     9    34    1
    25     9    35    1
    26    10    12    2
    27    10    36    1
    28    12    13    1
    29    12    37    1
    30    13    14    1
    31    13    38    1
    32    13    39    1
    33    14    15    2
    34    14    40    1
    35    15    16    1
    36    15    41    1
    37    16    18    1
    38    16    42    1
    39    16    43    1
    40    17    44    1
    41    17    45    1
    42    17    46    1
    43    18    19    2
    44    18    47    1
    45    19    20    1
    46    19    48    1
    47    20    21    1
    48    20    49    1
    49    20    50    1
    50    21    51    1
    51    21    52    1
    52    21    53    1
