@<TRIPOS>MOLECULE
IMPHY017643
 33 32 0 0 0
SMALL
GASTEIGER

@<TRIPOS>ATOM
      1 O           9.7942   -1.9400    0.0000 O.2     1  UNL1       -0.2963
      2 C           2.8660    0.0600    0.0000 C.3     1  UNL1       -0.0496
      3 C           2.8660    1.0600    0.0000 C.3     1  UNL1       -0.0530
      4 C           3.7320   -0.4400    0.0000 C.3     1  UNL1       -0.0348
      5 C           2.0000    1.5600    0.0000 C.3     1  UNL1       -0.0559
      6 C           3.7320   -1.4400    0.0000 C.2     1  UNL1       -0.0879
      7 C           2.0000    2.5600    0.0000 C.3     1  UNL1       -0.0653
      8 C           5.4641   -1.4400    0.0000 C.3     1  UNL1       -0.0313
      9 C           4.5981   -1.9400    0.0000 C.2     1  UNL1       -0.0876
     10 C           6.3301   -1.9400    0.0000 C.3     1  UNL1       -0.0309
     11 C           7.1962   -1.4400    0.0000 C.2     1  UNL1       -0.0807
     12 C           8.0622   -1.9400    0.0000 C.2     1  UNL1       -0.0264
     13 C           8.9282   -1.4400    0.0000 C.2     1  UNL1        0.1428
     14 H           2.2554    0.1677    0.0000 H       1  UNL1        0.0268
     15 H           2.6540   -0.5226    0.0000 H       1  UNL1        0.0268
     16 H           3.4766    0.9523    0.0000 H       1  UNL1        0.0265
     17 H           3.0781    1.6426    0.0000 H       1  UNL1        0.0265
     18 H           4.3426   -0.5477    0.0000 H       1  UNL1        0.0307
     19 H           3.9441    0.1426    0.0000 H       1  UNL1        0.0307
     20 H           1.3894    1.6677    0.0000 H       1  UNL1        0.0263
     21 H           1.7880    0.9774    0.0000 H       1  UNL1        0.0263
     22 H           3.1951   -1.7500    0.0000 H       1  UNL1        0.0569
     23 H           2.6200    2.5600    0.0000 H       1  UNL1        0.0230
     24 H           2.0000    3.1800    0.0000 H       1  UNL1        0.0230
     25 H           1.3800    2.5600    0.0000 H       1  UNL1        0.0230
     26 H           5.8626   -0.9651    0.0000 H       1  UNL1        0.0310
     27 H           5.0656   -0.9651    0.0000 H       1  UNL1        0.0310
     28 H           4.5981   -2.5600    0.0000 H       1  UNL1        0.0569
     29 H           5.9316   -2.4150    0.0000 H       1  UNL1        0.0310
     30 H           6.7287   -2.4150    0.0000 H       1  UNL1        0.0310
     31 H           7.1962   -0.8200    0.0000 H       1  UNL1        0.0573
     32 H           8.0622   -2.5600    0.0000 H       1  UNL1        0.0646
     33 H           8.9282   -0.8200    0.0000 H       1  UNL1        0.1075
@<TRIPOS>BOND
     1     1    13    2
     2     2     3    1
     3     2     4    1
     4     2    14    1
     5     2    15    1
     6     3     5    1
     7     3    16    1
     8     3    17    1
     9     4     6    1
    10     4    18    1
    11     4    19    1
    12     5     7    1
    13     5    20    1
    14     5    21    1
    15     6     9    2
    16     6    22    1
    17     7    23    1
    18     7    24    1
    19     7    25    1
    20     8     9    1
    21     8    10    1
    22     8    26    1
    23     8    27    1
    24     9    28    1
    25    10    11    1
    26    10    29    1
    27    10    30    1
    28    11    12    2
    29    11    31    1
    30    12    13    1
    31    12    32    1
    32    13    33    1
