@<TRIPOS>MOLECULE
IMPHY009656
 18 18 0 0 0
SMALL
GASTEIGER

@<TRIPOS>ATOM
      1 O           2.5369    0.2500    0.0000 O.3     1  UNL1       -0.5028
      2 O           2.5369   -1.7500    0.0000 O.3     1  UNL1       -0.5032
      3 O           6.0010   -1.7500    0.0000 O.3     1  UNL1       -0.5066
      4 O           5.1350    1.7500    0.0000 O.3     1  UNL1       -0.4770
      5 O           3.4030    1.7500    0.0000 O.2     1  UNL1       -0.2450
      6 C           4.2690    0.2500    0.0000 C.ar    1  UNL1        0.1072
      7 C           3.4030   -0.2500    0.0000 C.ar    1  UNL1        0.1727
      8 C           5.1350   -0.2500    0.0000 C.ar    1  UNL1       -0.0024
      9 C           3.4030   -1.2500    0.0000 C.ar    1  UNL1        0.1626
     10 C           5.1350   -1.2500    0.0000 C.ar    1  UNL1        0.1213
     11 C           4.2690   -1.7500    0.0000 C.ar    1  UNL1        0.0250
     12 C           4.2690    1.2500    0.0000 C.2     1  UNL1        0.3406
     13 H           5.6720    0.0600    0.0000 H       1  UNL1        0.0663
     14 H           4.2690   -2.3700    0.0000 H       1  UNL1        0.0692
     15 H           2.0000   -0.0600    0.0000 H       1  UNL1        0.2923
     16 H           2.5369   -2.3700    0.0000 H       1  UNL1        0.2923
     17 H           6.0010   -2.3700    0.0000 H       1  UNL1        0.2921
     18 H           5.1350    2.3700    0.0000 H       1  UNL1        0.2954
@<TRIPOS>BOND
     1     1     7    1
     2     1    15    1
     3     2     9    1
     4     2    16    1
     5     3    10    1
     6     3    17    1
     7     4    12    1
     8     4    18    1
     9     5    12    2
    10     6     7   ar
    11     6     8   ar
    12     6    12    1
    13     7     9   ar
    14     8    10   ar
    15     8    13    1
    16     9    11   ar
    17    10    11   ar
    18    11    14    1
