@<TRIPOS>MOLECULE
IMPHY011560
 41 44 0 0 0
SMALL
GASTEIGER

@<TRIPOS>ATOM
      1 O           6.1621    0.1141    0.0000 O.3     1  UNL1       -0.4830
      2 O           8.3061    2.1826    0.0000 O.3     1  UNL1       -0.4907
      3 O           9.5751   -1.6837    0.0000 O.3     1  UNL1       -0.4914
      4 O           2.6726    1.0184    0.0000 O.3     1  UNL1       -0.4950
      5 O          10.9457   -0.1616    0.0000 O.3     1  UNL1       -0.4913
      6 C           6.6589    1.6474    0.0000 C.3     1  UNL1        0.0629
      7 C           6.9679    0.6963    0.0000 C.3     1  UNL1        0.1386
      8 C           5.6648    1.6448    0.0000 C.ar    1  UNL1        0.0047
      9 C           7.3280    2.3905    0.0000 C.3     1  UNL1        0.1002
     10 C           7.9460    0.4884    0.0000 C.ar    1  UNL1        0.0387
     11 C           5.3584    0.6991    0.0000 C.ar    1  UNL1        0.1286
     12 C           8.6152    1.2316    0.0000 C.ar    1  UNL1        0.1309
     13 C           4.9832    2.4243    0.0000 C.ar    1  UNL1       -0.0511
     14 C           8.2526   -0.5071    0.0000 C.ar    1  UNL1       -0.0061
     15 C           4.3492    0.4674    0.0000 C.ar    1  UNL1        0.0221
     16 C           9.6372    1.0307    0.0000 C.ar    1  UNL1        0.0258
     17 C           3.9689    2.2160    0.0000 C.ar    1  UNL1       -0.0195
     18 C           9.2698   -0.7315    0.0000 C.ar    1  UNL1        0.1621
     19 C           3.6498    1.2309    0.0000 C.ar    1  UNL1        0.1236
     20 C           9.9668    0.0426    0.0000 C.ar    1  UNL1        0.1650
     21 C           8.9031   -2.4243    0.0000 C.3     1  UNL1        0.0790
     22 C           2.0000    1.7583    0.0000 C.3     1  UNL1        0.0788
     23 C          11.6120    0.5842    0.0000 C.3     1  UNL1        0.0790
     24 H           6.3121    2.4234    0.0000 H       1  UNL1        0.0423
     25 H           7.1435   -0.1353    0.0000 H       1  UNL1        0.0793
     26 H           7.5602    2.9654    0.0000 H       1  UNL1        0.0704
     27 H           6.8022    2.7191    0.0000 H       1  UNL1        0.0704
     28 H           5.1811    3.0119    0.0000 H       1  UNL1        0.0623
     29 H           7.8324   -0.9630    0.0000 H       1  UNL1        0.0660
     30 H           4.1650   -0.1246    0.0000 H       1  UNL1        0.0691
     31 H          10.0467    1.4962    0.0000 H       1  UNL1        0.0692
     32 H           3.5554    2.6779    0.0000 H       1  UNL1        0.0654
     33 H           8.4440   -2.0077    0.0000 H       1  UNL1        0.0660
     34 H           8.4865   -2.8834    0.0000 H       1  UNL1        0.0660
     35 H           9.3623   -2.8409    0.0000 H       1  UNL1        0.0660
     36 H           2.4588    2.1754    0.0000 H       1  UNL1        0.0660
     37 H           1.5830    2.2171    0.0000 H       1  UNL1        0.0660
     38 H           1.5412    1.3413    0.0000 H       1  UNL1        0.0660
     39 H          12.0743    0.1711    0.0000 H       1  UNL1        0.0660
     40 H          12.0250    1.0465    0.0000 H       1  UNL1        0.0660
     41 H          11.1496    0.9972    0.0000 H       1  UNL1        0.0660
@<TRIPOS>BOND
     1     1     7    1
     2     1    11    1
     3     2     9    1
     4     2    12    1
     5     3    18    1
     6     3    21    1
     7     4    19    1
     8     4    22    1
     9     5    20    1
    10     5    23    1
    11     6     7    1
    12     6     8    1
    13     6     9    1
    14     6    24    1
    15     7    10    1
    16     7    25    1
    17     8    11   ar
    18     8    13   ar
    19     9    26    1
    20     9    27    1
    21    10    12   ar
    22    10    14   ar
    23    11    15   ar
    24    12    16   ar
    25    13    17   ar
    26    13    28    1
    27    14    18   ar
    28    14    29    1
    29    15    19   ar
    30    15    30    1
    31    16    20   ar
    32    16    31    1
    33    17    19   ar
    34    17    32    1
    35    18    20   ar
    36    21    33    1
    37    21    34    1
    38    21    35    1
    39    22    36    1
    40    22    37    1
    41    22    38    1
    42    23    39    1
    43    23    40    1
    44    23    41    1
