@<TRIPOS>MOLECULE
IMPHY009649
 50 54 0 0 0
SMALL
GASTEIGER

@<TRIPOS>ATOM
      1 O           5.6783   -0.7430    0.0000 O.3     1  UNL1       -0.4828
      2 O           7.8223    1.3255    0.0000 O.3     1  UNL1       -0.4906
      3 O          10.5476   -1.0237    0.0000 O.3     1  UNL1       -0.4814
      4 O           7.0911   -2.0995    0.0000 O.3     1  UNL1       -0.4939
      5 O           2.8182    2.1040    0.0000 O.3     1  UNL1       -0.4914
      6 O           2.1888    0.1613    0.0000 O.3     1  UNL1       -0.5032
      7 C           6.1750    0.7903    0.0000 C.3     1  UNL1        0.0632
      8 C           6.4840   -0.1608    0.0000 C.3     1  UNL1        0.1419
      9 C           7.4622   -0.3687    0.0000 C.ar    1  UNL1        0.0773
     10 C           5.1810    0.7877    0.0000 C.ar    1  UNL1        0.0082
     11 C           6.8442    1.5334    0.0000 C.3     1  UNL1        0.1002
     12 C           4.8746   -0.1580    0.0000 C.ar    1  UNL1        0.1288
     13 C           8.1313    0.3744    0.0000 C.ar    1  UNL1        0.1342
     14 C           7.7688   -1.3642    0.0000 C.ar    1  UNL1        0.1409
     15 C           8.7859   -1.5886    0.0000 C.ar    1  UNL1        0.0588
     16 C           4.4994    1.5672    0.0000 C.ar    1  UNL1       -0.0092
     17 C           9.1534    0.1736    0.0000 C.ar    1  UNL1        0.0230
     18 C           9.4829   -0.8145    0.0000 C.ar    1  UNL1        0.1358
     19 C          10.8908   -2.0530    0.0000 C.3     1  UNL1        0.1235
     20 C           3.8654   -0.3897    0.0000 C.ar    1  UNL1        0.0255
     21 C           3.4851    1.3588    0.0000 C.ar    1  UNL1        0.1618
     22 C           9.1053   -2.6255    0.0000 C.2     1  UNL1       -0.0478
     23 C           3.1660    0.3738    0.0000 C.ar    1  UNL1        0.1620
     24 C          10.1648   -2.8593    0.0000 C.2     1  UNL1       -0.0408
     25 C          11.6365   -2.7192    0.0000 C.3     1  UNL1       -0.0215
     26 C          11.8406   -1.7403    0.0000 C.3     1  UNL1       -0.0215
     27 C           7.3891   -3.0541    0.0000 C.3     1  UNL1        0.0788
     28 C           3.1300    3.0541    0.0000 C.3     1  UNL1        0.0790
     29 H           5.9221    1.3563    0.0000 H       1  UNL1        0.0423
     30 H           6.6122   -0.7674    0.0000 H       1  UNL1        0.0794
     31 H           7.0764    2.1083    0.0000 H       1  UNL1        0.0704
     32 H           6.3184    1.8620    0.0000 H       1  UNL1        0.0704
     33 H           4.6973    2.1548    0.0000 H       1  UNL1        0.0659
     34 H           9.5629    0.6391    0.0000 H       1  UNL1        0.0691
     35 H           3.6812   -0.9817    0.0000 H       1  UNL1        0.0692
     36 H           8.6851   -3.0815    0.0000 H       1  UNL1        0.0624
     37 H          10.3541   -3.4497    0.0000 H       1  UNL1        0.0611
     38 H          11.2234   -3.1816    0.0000 H       1  UNL1        0.0271
     39 H          12.0345   -2.3292    0.0000 H       1  UNL1        0.0271
     40 H          12.4296   -1.5465    0.0000 H       1  UNL1        0.0271
     41 H          11.6468   -1.1514    0.0000 H       1  UNL1        0.0271
     42 H          12.0989   -3.1323    0.0000 H       1  UNL1        0.0271
     43 H          12.0496   -2.2569    0.0000 H       1  UNL1        0.0271
     44 H           6.7973   -3.2389    0.0000 H       1  UNL1        0.0660
     45 H           7.5738   -3.6460    0.0000 H       1  UNL1        0.0660
     46 H           7.9809   -2.8694    0.0000 H       1  UNL1        0.0660
     47 H           2.0000   -0.4293    0.0000 H       1  UNL1        0.2923
     48 H           3.7191    2.8608    0.0000 H       1  UNL1        0.0660
     49 H           3.3234    3.6432    0.0000 H       1  UNL1        0.0660
     50 H           2.5410    3.2475    0.0000 H       1  UNL1        0.0660
@<TRIPOS>BOND
     1     1     8    1
     2     1    12    1
     3     2    11    1
     4     2    13    1
     5     3    18    1
     6     3    19    1
     7     4    14    1
     8     4    27    1
     9     5    21    1
    10     5    28    1
    11     6    23    1
    12     6    47    1
    13     7     8    1
    14     7    10    1
    15     7    11    1
    16     7    29    1
    17     8     9    1
    18     8    30    1
    19     9    13   ar
    20     9    14   ar
    21    10    12   ar
    22    10    16   ar
    23    11    31    1
    24    11    32    1
    25    12    20   ar
    26    13    17   ar
    27    14    15   ar
    28    15    18   ar
    29    15    22    1
    30    16    21   ar
    31    16    33    1
    32    17    18   ar
    33    17    34    1
    34    19    24    1
    35    19    25    1
    36    19    26    1
    37    20    23   ar
    38    20    35    1
    39    21    23   ar
    40    22    24    2
    41    22    36    1
    42    24    37    1
    43    25    38    1
    44    25    42    1
    45    25    43    1
    46    26    39    1
    47    26    40    1
    48    26    41    1
    49    27    44    1
    50    27    45    1
    51    27    46    1
    52    28    48    1
    53    28    49    1
    54    28    50    1
