@<TRIPOS>MOLECULE
IMPHY012566
 73 76 0 0 0
SMALL
GASTEIGER

@<TRIPOS>ATOM
      1 O           2.5357   -3.6598    0.0000 O.3     1  UNL1       -0.3915
      2 C           7.9288   -0.6074    0.0000 C.3     1  UNL1       -0.0222
      3 C           7.9288   -1.6074    0.0000 C.3     1  UNL1       -0.0136
      4 C           8.8750   -0.3027    0.0000 C.3     1  UNL1       -0.0291
      5 C           6.1968   -1.6074    0.0000 C.3     1  UNL1       -0.0102
      6 C           7.0628   -0.1074    0.0000 C.3     1  UNL1       -0.0462
      7 C           7.0628   -2.1074    0.0000 C.2     1  UNL1       -0.0620
      8 C           8.8750   -1.9122    0.0000 C.3     1  UNL1       -0.0457
      9 C           5.2868   -2.1143    0.0000 C.3     1  UNL1       -0.0041
     10 C           9.4586   -1.1074    0.0000 C.3     1  UNL1       -0.0486
     11 C           6.1968   -0.6074    0.0000 C.3     1  UNL1       -0.0452
     12 C           7.9288    0.3926    0.0000 C.3     1  UNL1       -0.0587
     13 C           9.1857    0.6478    0.0000 C.3     1  UNL1       -0.0224
     14 C           5.2787   -3.1559    0.0000 C.2     1  UNL1       -0.0607
     15 C           4.3599   -1.5502    0.0000 C.3     1  UNL1       -0.0410
     16 C           7.0789   -3.1489    0.0000 C.2     1  UNL1       -0.0620
     17 C           5.2945   -1.1143    0.0000 C.3     1  UNL1       -0.0553
     18 C           6.1808   -3.6767    0.0000 C.2     1  UNL1       -0.0619
     19 C           4.3433   -3.7056    0.0000 C.3     1  UNL1       -0.0048
     20 C           3.4120   -2.0781    0.0000 C.3     1  UNL1       -0.0258
     21 C           3.4037   -3.1631    0.0000 C.3     1  UNL1        0.0590
     22 C           8.5179    1.3921    0.0000 C.3     1  UNL1       -0.0587
     23 C          10.1642    0.8540    0.0000 C.2     1  UNL1       -0.0846
     24 C          10.4749    1.8046    0.0000 C.2     1  UNL1       -0.0846
     25 C          11.4534    2.0108    0.0000 C.3     1  UNL1       -0.0234
     26 C          11.7640    2.9613    0.0000 C.3     1  UNL1       -0.0407
     27 C          12.1212    1.2665    0.0000 C.3     1  UNL1       -0.0587
     28 C          12.7425    3.1675    0.0000 C.3     1  UNL1       -0.0621
     29 C          11.0962    3.7056    0.0000 C.3     1  UNL1       -0.0621
     30 H           8.0188   -2.4527    0.0000 H       1  UNL1        0.0351
     31 H           9.7148   -0.1708    0.0000 H       1  UNL1        0.0312
     32 H           6.9329   -1.1824    0.0000 H       1  UNL1        0.0354
     33 H           7.4613    0.3675    0.0000 H       1  UNL1        0.0271
     34 H           6.6643    0.3675    0.0000 H       1  UNL1        0.0271
     35 H           8.6240   -2.4791    0.0000 H       1  UNL1        0.0271
     36 H           9.4124   -2.2214    0.0000 H       1  UNL1        0.0271
     37 H           9.9195   -1.5222    0.0000 H       1  UNL1        0.0268
     38 H           9.9195   -0.6927    0.0000 H       1  UNL1        0.0268
     39 H           5.9847   -0.0248    0.0000 H       1  UNL1        0.0271
     40 H           5.5862   -0.7151    0.0000 H       1  UNL1        0.0271
     41 H           8.5488    0.3926    0.0000 H       1  UNL1        0.0235
     42 H           7.9288    1.0126    0.0000 H       1  UNL1        0.0235
     43 H           7.3088    0.3926    0.0000 H       1  UNL1        0.0235
     44 H           9.3783    1.2371    0.0000 H       1  UNL1        0.0343
     45 H           4.7681   -1.0835    0.0000 H       1  UNL1        0.0275
     46 H           3.9700   -1.0682    0.0000 H       1  UNL1        0.0275
     47 H           7.6193   -3.4527    0.0000 H       1  UNL1        0.0617
     48 H           5.9145   -1.1191    0.0000 H       1  UNL1        0.0238
     49 H           5.2993   -0.4943    0.0000 H       1  UNL1        0.0238
     50 H           4.6745   -1.1095    0.0000 H       1  UNL1        0.0238
     51 H           6.1832   -4.2967    0.0000 H       1  UNL1        0.0617
     52 H           3.9460   -4.1816    0.0000 H       1  UNL1        0.0335
     53 H           4.7443   -4.1785    0.0000 H       1  UNL1        0.0335
     54 H           3.2075   -1.4929    0.0000 H       1  UNL1        0.0290
     55 H           2.8004   -2.1795    0.0000 H       1  UNL1        0.0290
     56 H           3.4025   -3.7831    0.0000 H       1  UNL1        0.0596
     57 H           8.9793    1.8062    0.0000 H       1  UNL1        0.0235
     58 H           8.1038    1.8536    0.0000 H       1  UNL1        0.0235
     59 H           8.0564    0.9781    0.0000 H       1  UNL1        0.0235
     60 H          10.5783    0.3926    0.0000 H       1  UNL1        0.0572
     61 H          10.0608    2.2660    0.0000 H       1  UNL1        0.0572
     62 H           2.0000   -3.3477    0.0000 H       1  UNL1        0.2098
     63 H          11.2608    1.4215    0.0000 H       1  UNL1        0.0343
     64 H          12.1781    2.4998    0.0000 H       1  UNL1        0.0301
     65 H          11.6598    0.8524    0.0000 H       1  UNL1        0.0235
     66 H          12.5353    0.8050    0.0000 H       1  UNL1        0.0235
     67 H          12.5827    1.6805    0.0000 H       1  UNL1        0.0235
     68 H          12.8704    2.5608    0.0000 H       1  UNL1        0.0233
     69 H          13.3492    3.2954    0.0000 H       1  UNL1        0.0233
     70 H          12.6147    3.7742    0.0000 H       1  UNL1        0.0233
     71 H          11.5577    4.1197    0.0000 H       1  UNL1        0.0233
     72 H          10.6821    4.1671    0.0000 H       1  UNL1        0.0233
     73 H          10.6347    3.2915    0.0000 H       1  UNL1        0.0233
@<TRIPOS>BOND
     1    21     1    1
     2     1    62    1
     3     2     3    1
     4     2     4    1
     5     2     6    1
     6     2    12    1
     7     3     7    1
     8     3     8    1
     9     3    30    1
    10     4    10    1
    11     4    13    1
    12     4    31    1
    13     5     7    1
    14     5     9    1
    15     5    11    1
    16     5    32    1
    17     6    11    1
    18     6    33    1
    19     6    34    1
    20     7    16    2
    21     8    10    1
    22     8    35    1
    23     8    36    1
    24     9    14    1
    25     9    15    1
    26     9    17    1
    27    10    37    1
    28    10    38    1
    29    11    39    1
    30    11    40    1
    31    12    41    1
    32    12    42    1
    33    12    43    1
    34    13    22    1
    35    13    23    1
    36    13    44    1
    37    14    18    2
    38    14    19    1
    39    15    20    1
    40    15    45    1
    41    15    46    1
    42    16    18    1
    43    16    47    1
    44    17    48    1
    45    17    49    1
    46    17    50    1
    47    18    51    1
    48    19    21    1
    49    19    52    1
    50    19    53    1
    51    20    21    1
    52    20    54    1
    53    20    55    1
    54    21    56    1
    55    22    57    1
    56    22    58    1
    57    22    59    1
    58    23    24    2
    59    23    60    1
    60    24    25    1
    61    24    61    1
    62    25    26    1
    63    25    27    1
    64    25    63    1
    65    26    28    1
    66    26    29    1
    67    26    64    1
    68    27    65    1
    69    27    66    1
    70    27    67    1
    71    28    68    1
    72    28    69    1
    73    28    70    1
    74    29    71    1
    75    29    72    1
    76    29    73    1
