@<TRIPOS>MOLECULE
IMPHY002456
 79 82 0 0 0
SMALL
GASTEIGER

@<TRIPOS>ATOM
      1 O           6.1733   -4.1911    0.0000 O.2     1  UNL1       -0.2971
      2 O           2.5405   -1.0826    0.0000 O.3     1  UNL1       -0.3892
      3 O           2.5244   -3.1742    0.0000 O.3     1  UNL1       -0.3892
      4 O          10.8207    0.5953    0.0000 O.3     1  UNL1       -0.3886
      5 O           9.7956    3.0344    0.0000 O.3     1  UNL1       -0.3849
      6 C           7.9174   -0.1219    0.0000 C.3     1  UNL1       -0.0258
      7 C           7.9174   -1.1219    0.0000 C.3     1  UNL1       -0.0319
      8 C           7.0514   -1.6219    0.0000 C.3     1  UNL1       -0.0277
      9 C           6.1854   -1.1219    0.0000 C.3     1  UNL1       -0.0314
     10 C           5.2754   -1.6287    0.0000 C.3     1  UNL1       -0.0170
     11 C           8.8637    0.1828    0.0000 C.3     1  UNL1       -0.0303
     12 C           7.0514    0.3781    0.0000 C.3     1  UNL1       -0.0468
     13 C           6.1854   -0.1219    0.0000 C.3     1  UNL1       -0.0489
     14 C           8.8637   -1.4266    0.0000 C.3     1  UNL1       -0.0492
     15 C           5.2674   -2.6703    0.0000 C.3     1  UNL1        0.0256
     16 C           9.4473   -0.6219    0.0000 C.3     1  UNL1       -0.0491
     17 C           7.0675   -2.6634    0.0000 C.3     1  UNL1        0.0095
     18 C           4.3486   -1.0647    0.0000 C.3     1  UNL1       -0.0181
     19 C           9.1743    1.1334    0.0000 C.3     1  UNL1       -0.0117
     20 C           7.9174    0.8781    0.0000 C.3     1  UNL1       -0.0590
     21 C           6.1694   -3.1912    0.0000 C.2     1  UNL1        0.1373
     22 C           4.3319   -3.2201    0.0000 C.3     1  UNL1       -0.0144
     23 C           5.2831   -0.6288    0.0000 C.3     1  UNL1       -0.0586
     24 C           3.4007   -1.5926    0.0000 C.3     1  UNL1        0.0816
     25 C           3.3923   -2.6776    0.0000 C.3     1  UNL1        0.0817
     26 C          10.1528    1.3396    0.0000 C.3     1  UNL1        0.0877
     27 C           8.5065    1.8777    0.0000 C.3     1  UNL1       -0.0597
     28 C          10.4635    2.2901    0.0000 C.3     1  UNL1        0.1023
     29 C          11.4420    2.4963    0.0000 C.2     1  UNL1       -0.0435
     30 C          11.7527    3.4468    0.0000 C.3     1  UNL1       -0.0233
     31 C          12.1098    1.7520    0.0000 C.2     1  UNL1       -0.0967
     32 C          12.7312    3.6531    0.0000 C.3     1  UNL1       -0.0589
     33 C          11.0848    4.1911    0.0000 C.3     1  UNL1       -0.0589
     34 H           7.9830   -1.7384    0.0000 H       1  UNL1        0.0309
     35 H           7.5907   -1.9277    0.0000 H       1  UNL1        0.0310
     36 H           6.7223   -0.8119    0.0000 H       1  UNL1        0.0309
     37 H           9.7034    0.3147    0.0000 H       1  UNL1        0.0310
     38 H           7.4500    0.8531    0.0000 H       1  UNL1        0.0271
     39 H           6.6529    0.8531    0.0000 H       1  UNL1        0.0271
     40 H           5.9733    0.4607    0.0000 H       1  UNL1        0.0268
     41 H           5.5748   -0.2296    0.0000 H       1  UNL1        0.0268
     42 H           8.6126   -1.9935    0.0000 H       1  UNL1        0.0268
     43 H           9.4010   -1.7358    0.0000 H       1  UNL1        0.0268
     44 H           5.2698   -3.2903    0.0000 H       1  UNL1        0.0384
     45 H           9.9081   -1.0366    0.0000 H       1  UNL1        0.0268
     46 H           9.9081   -0.2072    0.0000 H       1  UNL1        0.0268
     47 H           7.2855   -3.2438    0.0000 H       1  UNL1        0.0345
     48 H           7.6766   -2.5479    0.0000 H       1  UNL1        0.0345
     49 H           4.7568   -0.5980    0.0000 H       1  UNL1        0.0296
     50 H           3.9586   -0.5826    0.0000 H       1  UNL1        0.0296
     51 H           8.5676    1.0055    0.0000 H       1  UNL1        0.0327
     52 H           8.5374    0.8781    0.0000 H       1  UNL1        0.0235
     53 H           7.9174    1.4981    0.0000 H       1  UNL1        0.0235
     54 H           7.2974    0.8781    0.0000 H       1  UNL1        0.0235
     55 H           3.9346   -3.6960    0.0000 H       1  UNL1        0.0298
     56 H           4.7329   -3.6930    0.0000 H       1  UNL1        0.0298
     57 H           5.9031   -0.6335    0.0000 H       1  UNL1        0.0235
     58 H           5.2879   -0.0088    0.0000 H       1  UNL1        0.0235
     59 H           4.6631   -0.6240    0.0000 H       1  UNL1        0.0235
     60 H           2.8608   -1.8974    0.0000 H       1  UNL1        0.0619
     61 H           2.8572   -2.3645    0.0000 H       1  UNL1        0.0619
     62 H           9.9602    0.7503    0.0000 H       1  UNL1        0.0625
     63 H           8.9680    2.2917    0.0000 H       1  UNL1        0.0233
     64 H           8.0924    2.3391    0.0000 H       1  UNL1        0.0233
     65 H           8.0450    1.4636    0.0000 H       1  UNL1        0.0233
     66 H          10.6561    2.8794    0.0000 H       1  UNL1        0.0666
     67 H           2.0000   -1.3864    0.0000 H       1  UNL1        0.2099
     68 H           2.5220   -3.7942    0.0000 H       1  UNL1        0.2099
     69 H          11.4273    0.7231    0.0000 H       1  UNL1        0.2099
     70 H           9.9883    3.6237    0.0000 H       1  UNL1        0.2103
     71 H          11.9453    4.0362    0.0000 H       1  UNL1        0.0341
     72 H          11.9172    1.1627    0.0000 H       1  UNL1        0.0535
     73 H          12.7165    1.8799    0.0000 H       1  UNL1        0.0535
     74 H          11.5463    4.6052    0.0000 H       1  UNL1        0.0235
     75 H          10.6708    4.6526    0.0000 H       1  UNL1        0.0235
     76 H          10.6234    3.7771    0.0000 H       1  UNL1        0.0235
     77 H          12.8590    3.0464    0.0000 H       1  UNL1        0.0235
     78 H          13.3378    3.7809    0.0000 H       1  UNL1        0.0235
     79 H          12.6033    4.2597    0.0000 H       1  UNL1        0.0235
@<TRIPOS>BOND
     1     1    21    2
     2    24     2    1
     3     2    67    1
     4    25     3    1
     5     3    68    1
     6    26     4    1
     7     4    69    1
     8    28     5    1
     9     5    70    1
    10     6     7    1
    11     6    11    1
    12     6    12    1
    13     6    20    1
    14     7     8    1
    15     7    14    1
    16     7    34    1
    17     8     9    1
    18     8    17    1
    19     8    35    1
    20     9    10    1
    21     9    13    1
    22     9    36    1
    23    10    15    1
    24    10    18    1
    25    10    23    1
    26    11    16    1
    27    11    19    1
    28    11    37    1
    29    12    13    1
    30    12    38    1
    31    12    39    1
    32    13    40    1
    33    13    41    1
    34    14    16    1
    35    14    42    1
    36    14    43    1
    37    15    21    1
    38    15    22    1
    39    15    44    1
    40    16    45    1
    41    16    46    1
    42    17    21    1
    43    17    47    1
    44    17    48    1
    45    18    24    1
    46    18    49    1
    47    18    50    1
    48    19    26    1
    49    19    27    1
    50    19    51    1
    51    20    52    1
    52    20    53    1
    53    20    54    1
    54    22    25    1
    55    22    55    1
    56    22    56    1
    57    23    57    1
    58    23    58    1
    59    23    59    1
    60    24    25    1
    61    24    60    1
    62    25    61    1
    63    26    28    1
    64    26    62    1
    65    27    63    1
    66    27    64    1
    67    27    65    1
    68    28    29    1
    69    28    66    1
    70    29    30    1
    71    29    31    2
    72    30    32    1
    73    30    33    1
    74    30    71    1
    75    31    72    1
    76    31    73    1
    77    32    77    1
    78    32    78    1
    79    32    79    1
    80    33    74    1
    81    33    75    1
    82    33    76    1
