@<TRIPOS>MOLECULE
IMPHY011543
 30 32 0 0 0
SMALL
GASTEIGER

@<TRIPOS>ATOM
      1 O           3.7817    1.8592    0.0000 O.3     1  UNL1       -0.5060
      2 O           5.5301    1.8246    0.0000 O.2     1  UNL1       -0.2864
      3 O           5.5301   -2.1754    0.0000 O.2     1  UNL1       -0.2866
      4 O           7.2785    1.8592    0.0000 O.3     1  UNL1       -0.5059
      5 O           9.0602   -1.1995    0.0000 O.3     1  UNL1       -0.5066
      6 C           4.6641   -0.6754    0.0000 C.ar    1  UNL1        0.0368
      7 C           4.6641    0.3246    0.0000 C.ar    1  UNL1        0.0745
      8 C           6.3961    0.3246    0.0000 C.ar    1  UNL1        0.0748
      9 C           6.3961   -0.6754    0.0000 C.ar    1  UNL1        0.0400
     10 C           5.5301    0.8246    0.0000 C.2     1  UNL1        0.2015
     11 C           5.5301   -1.1754    0.0000 C.2     1  UNL1        0.1949
     12 C           3.7702   -1.2100    0.0000 C.ar    1  UNL1       -0.0471
     13 C           3.7702    0.8593    0.0000 C.ar    1  UNL1        0.1286
     14 C           2.8641   -0.6962    0.0000 C.ar    1  UNL1       -0.0463
     15 C           7.2901    0.8593    0.0000 C.ar    1  UNL1        0.1318
     16 C           7.2901   -1.2100    0.0000 C.ar    1  UNL1       -0.0084
     17 C           2.8641    0.3454    0.0000 C.ar    1  UNL1       -0.0165
     18 C           8.1962   -0.6962    0.0000 C.ar    1  UNL1        0.1210
     19 C           8.1962    0.3454    0.0000 C.ar    1  UNL1        0.0221
     20 C           2.0000   -1.1995    0.0000 C.3     1  UNL1       -0.0396
     21 H           3.7773   -1.8300    0.0000 H       1  UNL1        0.0627
     22 H           7.2829   -1.8300    0.0000 H       1  UNL1        0.0661
     23 H           2.3284    0.6575    0.0000 H       1  UNL1        0.0657
     24 H           8.7319    0.6575    0.0000 H       1  UNL1        0.0691
     25 H           1.6879   -0.6638    0.0000 H       1  UNL1        0.0278
     26 H           1.4643   -1.5116    0.0000 H       1  UNL1        0.0278
     27 H           2.3121   -1.7353    0.0000 H       1  UNL1        0.0278
     28 H           3.2484    2.1754    0.0000 H       1  UNL1        0.2922
     29 H           7.8118    2.1754    0.0000 H       1  UNL1        0.2922
     30 H           9.5984   -0.8916    0.0000 H       1  UNL1        0.2921
@<TRIPOS>BOND
     1     1    13    1
     2     1    28    1
     3     2    10    2
     4     3    11    2
     5     4    15    1
     6     4    29    1
     7     5    18    1
     8     5    30    1
     9     6     7   ar
    10     6    11    1
    11     6    12   ar
    12     7    10    1
    13     7    13   ar
    14     8     9   ar
    15     8    10    1
    16     8    15   ar
    17     9    11    1
    18     9    16   ar
    19    12    14   ar
    20    12    21    1
    21    13    17   ar
    22    14    17   ar
    23    14    20    1
    24    15    19   ar
    25    16    18   ar
    26    16    22    1
    27    17    23    1
    28    18    19   ar
    29    19    24    1
    30    20    25    1
    31    20    26    1
    32    20    27    1
