@<TRIPOS>MOLECULE
IMPHY008766
 43 44 0 0 0
SMALL
GASTEIGER

@<TRIPOS>ATOM
      1 O           6.3981    2.0223    0.0000 O.3     1  UNL1       -0.4940
      2 O           4.6497   -2.0123    0.0000 O.3     1  UNL1       -0.4895
      3 O           2.8680   -1.0019    0.0000 O.3     1  UNL1       -0.4914
      4 O           8.1301   -0.9777    0.0000 O.2     1  UNL1       -0.2675
      5 N           6.3981   -0.9777    0.0000 N.ar    1  UNL1       -0.3187
      6 C           5.5320    0.5223    0.0000 C.ar    1  UNL1        0.0443
      7 C           7.2641    0.5223    0.0000 C.ar    1  UNL1        0.0628
      8 C           5.5320   -0.4777    0.0000 C.ar    1  UNL1        0.0986
      9 C           6.3981    1.0223    0.0000 C.ar    1  UNL1        0.1379
     10 C           8.1301    1.0223    0.0000 C.3     1  UNL1       -0.0006
     11 C           7.2641   -0.4777    0.0000 C.ar    1  UNL1        0.2563
     12 C           4.6381   -1.0124    0.0000 C.ar    1  UNL1        0.1856
     13 C           4.6381    1.0570    0.0000 C.ar    1  UNL1       -0.0454
     14 C           3.7320   -0.4985    0.0000 C.ar    1  UNL1        0.1636
     15 C           3.7320    0.5431    0.0000 C.ar    1  UNL1       -0.0155
     16 C           8.9962    0.5223    0.0000 C.2     1  UNL1       -0.0807
     17 C           9.8622    1.0223    0.0000 C.2     1  UNL1       -0.0793
     18 C           7.2641    2.5223    0.0000 C.3     1  UNL1        0.0788
     19 C          10.7282    0.5223    0.0000 C.3     1  UNL1       -0.0440
     20 C           9.8622    2.0223    0.0000 C.3     1  UNL1       -0.0440
     21 C           3.7895   -2.5223    0.0000 C.3     1  UNL1        0.0791
     22 C           2.0000   -0.5052    0.0000 C.3     1  UNL1        0.0790
     23 H           8.5287    1.4972    0.0000 H       1  UNL1        0.0358
     24 H           7.7316    1.4972    0.0000 H       1  UNL1        0.0358
     25 H           6.3981   -1.5977    0.0000 H       1  UNL1        0.1690
     26 H           4.6453    1.6769    0.0000 H       1  UNL1        0.0626
     27 H           3.1963    0.8552    0.0000 H       1  UNL1        0.0655
     28 H           8.9962   -0.0977    0.0000 H       1  UNL1        0.0575
     29 H           7.5741    1.9854    0.0000 H       1  UNL1        0.0660
     30 H           7.8010    2.8323    0.0000 H       1  UNL1        0.0660
     31 H           6.9541    3.0592    0.0000 H       1  UNL1        0.0660
     32 H          10.4822    2.0223    0.0000 H       1  UNL1        0.0274
     33 H          10.4182   -0.0146    0.0000 H       1  UNL1        0.0274
     34 H          11.2651    0.2123    0.0000 H       1  UNL1        0.0274
     35 H          11.0382    1.0592    0.0000 H       1  UNL1        0.0274
     36 H           9.8622    2.6423    0.0000 H       1  UNL1        0.0274
     37 H           9.2422    2.0223    0.0000 H       1  UNL1        0.0274
     38 H           3.4733   -1.9890    0.0000 H       1  UNL1        0.0660
     39 H           3.2562   -2.8385    0.0000 H       1  UNL1        0.0660
     40 H           4.1057   -3.0556    0.0000 H       1  UNL1        0.0660
     41 H           2.3079    0.0329    0.0000 H       1  UNL1        0.0660
     42 H           1.4619   -0.1973    0.0000 H       1  UNL1        0.0660
     43 H           1.6921   -1.0433    0.0000 H       1  UNL1        0.0660
@<TRIPOS>BOND
     1     1     9    1
     2     1    18    1
     3     2    12    1
     4     2    21    1
     5     3    14    1
     6     3    22    1
     7     4    11    2
     8     5     8   ar
     9     5    11   ar
    10     5    25    1
    11     6     8   ar
    12     6     9   ar
    13     6    13   ar
    14     7     9   ar
    15     7    10    1
    16     7    11   ar
    17     8    12   ar
    18    10    16    1
    19    10    23    1
    20    10    24    1
    21    12    14   ar
    22    13    15   ar
    23    13    26    1
    24    14    15   ar
    25    15    27    1
    26    16    17    2
    27    16    28    1
    28    17    19    1
    29    17    20    1
    30    18    29    1
    31    18    30    1
    32    18    31    1
    33    19    33    1
    34    19    34    1
    35    19    35    1
    36    20    32    1
    37    20    36    1
    38    20    37    1
    39    21    38    1
    40    21    39    1
    41    21    40    1
    42    22    41    1
    43    22    42    1
    44    22    43    1
