@<TRIPOS>MOLECULE
IMPHY010987
 177 184 0 0 0
SMALL
GASTEIGER

@<TRIPOS>ATOM
      1 O           7.3190    1.5069    0.0000 O.3     1  UNL1       -0.3915
      2 O           9.0218   -4.6833    0.0000 O.3     1  UNL1       -0.3449
      3 O           7.9151    3.9697    0.0000 O.3     1  UNL1       -0.3422
      4 O           7.2898   -4.6833    0.0000 O.3     1  UNL1       -0.3405
      5 O           7.5514    5.6631    0.0000 O.3     1  UNL1       -0.3405
      6 O           9.0218   -6.6833    0.0000 O.3     1  UNL1       -0.3378
      7 O           9.8705    4.3896    0.0000 O.3     1  UNL1       -0.3841
      8 O           7.2898   -7.6833    0.0000 O.3     1  UNL1       -0.3864
      9 O          10.4845    6.2931    0.0000 O.3     1  UNL1       -0.3864
     10 O           5.5577   -6.6833    0.0000 O.3     1  UNL1       -0.3865
     11 O           9.1431    7.7765    0.0000 O.3     1  UNL1       -0.3865
     12 O           6.2100    7.1465    0.0000 O.3     1  UNL1       -0.3460
     13 O           8.1558   -8.1833    0.0000 O.3     1  UNL1       -0.3394
     14 O           4.6917   -5.1833    0.0000 O.3     1  UNL1       -0.3924
     15 O          10.7539   -7.6833    0.0000 O.3     1  UNL1       -0.3841
     16 O          10.7539   -9.6833    0.0000 O.3     1  UNL1       -0.3864
     17 O           4.5616    7.6783    0.0000 O.3     1  UNL1       -0.3405
     18 O           9.0218  -10.6833    0.0000 O.3     1  UNL1       -0.3864
     19 O           6.4237   -9.1833    0.0000 O.3     1  UNL1       -0.4616
     20 O           6.8240    9.0500    0.0000 O.3     1  UNL1       -0.3841
     21 O           5.4826   10.5334    0.0000 O.3     1  UNL1       -0.3864
     22 O           3.5272   10.1134    0.0000 O.3     1  UNL1       -0.3865
     23 O           2.6062    7.2583    0.0000 O.3     1  UNL1       -0.3924
     24 O           5.5577  -10.6833    0.0000 O.2     1  UNL1       -0.2502
     25 O           2.9596   -9.1833    0.0000 O.3     1  UNL1       -0.4802
     26 O           3.8257  -10.6833    0.0000 O.2     1  UNL1       -0.2504
     27 C           9.9229    0.0170    0.0000 C.3     1  UNL1       -0.0229
     28 C           9.9190    1.0169    0.0000 C.3     1  UNL1       -0.0209
     29 C           9.0588   -0.4864    0.0000 C.3     1  UNL1       -0.0271
     30 C           9.0467   -1.5279    0.0000 C.3     1  UNL1       -0.0252
     31 C           9.0511    1.5136    0.0000 C.3     1  UNL1       -0.0036
     32 C           9.9468   -2.0522    0.0000 C.3     1  UNL1       -0.0278
     33 C          10.8348   -0.4864    0.0000 C.3     1  UNL1       -0.0466
     34 C           9.2565    2.4862    0.0000 C.3     1  UNL1       -0.0063
     35 C           8.1908    0.0103    0.0000 C.3     1  UNL1       -0.0227
     36 C           8.1870    1.0103    0.0000 C.3     1  UNL1        0.0592
     37 C          10.6535    1.6869    0.0000 C.3     1  UNL1       -0.0464
     38 C          10.8469   -1.5279    0.0000 C.3     1  UNL1       -0.0486
     39 C           9.9594   -3.1372    0.0000 C.3     1  UNL1       -0.0052
     40 C          10.2449    2.5931    0.0000 C.3     1  UNL1       -0.0467
     41 C           8.0968   -2.0522    0.0000 C.3     1  UNL1       -0.0447
     42 C          10.9070    0.1944    0.0000 C.3     1  UNL1       -0.0588
     43 C          10.9045    0.8471    0.0000 C.3     1  UNL1       -0.0587
     44 C           8.1826   -1.0246    0.0000 C.3     1  UNL1       -0.0590
     45 C           9.0218   -3.6833    0.0000 C.3     1  UNL1        0.0672
     46 C           8.5858    3.2279    0.0000 C.3     1  UNL1        0.0733
     47 C           8.0843   -3.1372    0.0000 C.3     1  UNL1       -0.0255
     48 C          10.9593   -3.1294    0.0000 C.3     1  UNL1       -0.0572
     49 C          10.4660   -3.9993    0.0000 C.3     1  UNL1       -0.0572
     50 C           9.3276    3.8986    0.0000 C.3     1  UNL1       -0.0202
     51 C           7.8441    2.5572    0.0000 C.3     1  UNL1       -0.0354
     52 C          10.2793    3.5916    0.0000 C.3     1  UNL1       -0.0319
     53 C           8.1558   -5.1833    0.0000 C.3     1  UNL1        0.1886
     54 C           8.2221    4.9214    0.0000 C.3     1  UNL1        0.1885
     55 C           8.1558   -6.1833    0.0000 C.3     1  UNL1        0.1406
     56 C           9.1998    5.1314    0.0000 C.3     1  UNL1        0.1341
     57 C          11.0210    4.2624    0.0000 C.2     1  UNL1       -0.0852
     58 C           7.2898   -6.6833    0.0000 C.3     1  UNL1        0.1144
     59 C           9.5068    6.0831    0.0000 C.3     1  UNL1        0.1141
     60 C           6.4237   -5.1833    0.0000 C.3     1  UNL1        0.1130
     61 C           7.8584    6.6148    0.0000 C.3     1  UNL1        0.1134
     62 C           6.4237   -6.1833    0.0000 C.3     1  UNL1        0.1119
     63 C           8.8361    6.8248    0.0000 C.3     1  UNL1        0.1119
     64 C          11.9727    3.9554    0.0000 C.2     1  UNL1       -0.0796
     65 C           5.5577   -4.6833    0.0000 C.3     1  UNL1        0.0730
     66 C           7.1877    7.3565    0.0000 C.3     1  UNL1        0.0796
     67 C           9.0218   -7.6833    0.0000 C.3     1  UNL1        0.1886
     68 C          12.7144    4.6261    0.0000 C.3     1  UNL1       -0.0440
     69 C          12.1827    2.9777    0.0000 C.3     1  UNL1       -0.0440
     70 C           9.8878   -8.1833    0.0000 C.3     1  UNL1        0.1341
     71 C           9.8878   -9.1833    0.0000 C.3     1  UNL1        0.1141
     72 C           8.1558   -9.1833    0.0000 C.3     1  UNL1        0.1240
     73 C           9.0218   -9.6833    0.0000 C.3     1  UNL1        0.1129
     74 C           5.5393    7.8883    0.0000 C.3     1  UNL1        0.1880
     75 C           7.2898   -9.6833    0.0000 C.3     1  UNL1        0.1212
     76 C           5.8463    8.8400    0.0000 C.3     1  UNL1        0.1341
     77 C           5.1756    9.5817    0.0000 C.3     1  UNL1        0.1141
     78 C           3.8909    8.4200    0.0000 C.3     1  UNL1        0.1130
     79 C           4.1979    9.3717    0.0000 C.3     1  UNL1        0.1119
     80 C           2.9132    8.2100    0.0000 C.3     1  UNL1        0.0730
     81 C           5.5577   -9.6833    0.0000 C.2     1  UNL1        0.3180
     82 C           4.6917   -9.1833    0.0000 C.3     1  UNL1        0.1418
     83 C           3.8257   -9.6833    0.0000 C.2     1  UNL1        0.3155
     84 H           9.7933   -0.9142    0.0000 H       1  UNL1        0.0312
     85 H           8.3621    2.0115    0.0000 H       1  UNL1        0.0335
     86 H          10.6862   -2.4716    0.0000 H       1  UNL1        0.0312
     87 H          11.4469   -0.5854    0.0000 H       1  UNL1        0.0271
     88 H          11.0371    0.0997    0.0000 H       1  UNL1        0.0271
     89 H           9.5591    3.2805    0.0000 H       1  UNL1        0.0332
     90 H           7.5798    0.1156    0.0000 H       1  UNL1        0.0293
     91 H           7.9810   -0.5731    0.0000 H       1  UNL1        0.0293
     92 H           7.6512    0.6982    0.0000 H       1  UNL1        0.0596
     93 H          11.0208    1.1874    0.0000 H       1  UNL1        0.0271
     94 H          11.1888    1.9997    0.0000 H       1  UNL1        0.0271
     95 H          11.0627   -2.1092    0.0000 H       1  UNL1        0.0268
     96 H          11.4565   -1.4148    0.0000 H       1  UNL1        0.0268
     97 H          10.8337    2.7871    0.0000 H       1  UNL1        0.0269
     98 H          10.1138    3.1991    0.0000 H       1  UNL1        0.0269
     99 H           7.8945   -1.4662    0.0000 H       1  UNL1        0.0271
    100 H           7.4848   -2.1513    0.0000 H       1  UNL1        0.0271
    101 H          11.0170   -0.4158    0.0000 H       1  UNL1        0.0235
    102 H          11.5172    0.3044    0.0000 H       1  UNL1        0.0235
    103 H          10.7970    0.8046    0.0000 H       1  UNL1        0.0235
    104 H          10.7992    0.2361    0.0000 H       1  UNL1        0.0235
    105 H          11.5155    0.7418    0.0000 H       1  UNL1        0.0235
    106 H          11.0098    1.4581    0.0000 H       1  UNL1        0.0235
    107 H           8.4947   -0.4889    0.0000 H       1  UNL1        0.0235
    108 H           7.6469   -0.7125    0.0000 H       1  UNL1        0.0235
    109 H           7.8706   -1.5603    0.0000 H       1  UNL1        0.0235
    110 H           8.4843   -3.9922    0.0000 H       1  UNL1        0.0602
    111 H           7.4747   -3.0240    0.0000 H       1  UNL1        0.0290
    112 H           7.8685   -3.7184    0.0000 H       1  UNL1        0.0290
    113 H          10.9641   -3.7494    0.0000 H       1  UNL1        0.0236
    114 H           9.9315   -4.3134    0.0000 H       1  UNL1        0.0236
    115 H          10.7801   -4.5338    0.0000 H       1  UNL1        0.0236
    116 H          11.0005   -3.6852    0.0000 H       1  UNL1        0.0236
    117 H          11.5793   -3.1247    0.0000 H       1  UNL1        0.0236
    118 H          10.9545   -2.5095    0.0000 H       1  UNL1        0.0236
    119 H           6.7833    1.1949    0.0000 H       1  UNL1        0.2098
    120 H           9.6175    4.4467    0.0000 H       1  UNL1        0.0296
    121 H           8.8382    4.2793    0.0000 H       1  UNL1        0.0296
    122 H           7.4283    3.0171    0.0000 H       1  UNL1        0.0257
    123 H           7.3842    2.1414    0.0000 H       1  UNL1        0.0257
    124 H           8.2600    2.0974    0.0000 H       1  UNL1        0.0257
    125 H           9.9894    3.0436    0.0000 H       1  UNL1        0.0308
    126 H          10.7686    3.2110    0.0000 H       1  UNL1        0.0308
    127 H           8.6927   -5.4933    0.0000 H       1  UNL1        0.0938
    128 H           8.6380    4.4615    0.0000 H       1  UNL1        0.0938
    129 H           8.1558   -6.8033    0.0000 H       1  UNL1        0.0675
    130 H           9.8060    5.2616    0.0000 H       1  UNL1        0.0671
    131 H          10.8908    4.8685    0.0000 H       1  UNL1        0.0571
    132 H           6.7528   -6.9933    0.0000 H       1  UNL1        0.0648
    133 H           9.6972    6.6731    0.0000 H       1  UNL1        0.0648
    134 H           6.4237   -4.5633    0.0000 H       1  UNL1        0.0647
    135 H           7.2522    6.4846    0.0000 H       1  UNL1        0.0647
    136 H           5.8868   -5.8733    0.0000 H       1  UNL1        0.0647
    137 H           8.4203    7.2847    0.0000 H       1  UNL1        0.0647
    138 H          10.4767    4.5198    0.0000 H       1  UNL1        0.2101
    139 H           5.9562   -4.2083    0.0000 H       1  UNL1        0.0584
    140 H           5.1592   -4.2083    0.0000 H       1  UNL1        0.0584
    141 H           7.7128    7.6862    0.0000 H       1  UNL1        0.0587
    142 H           6.9542    7.9309    0.0000 H       1  UNL1        0.0587
    143 H           8.4849   -7.3733    0.0000 H       1  UNL1        0.0938
    144 H           6.7528   -7.9933    0.0000 H       1  UNL1        0.2100
    145 H          10.6749    6.8831    0.0000 H       1  UNL1        0.2100
    146 H          11.5765    2.8475    0.0000 H       1  UNL1        0.0274
    147 H          13.1303    4.1662    0.0000 H       1  UNL1        0.0274
    148 H          13.1743    5.0419    0.0000 H       1  UNL1        0.0274
    149 H          12.2986    5.0859    0.0000 H       1  UNL1        0.0274
    150 H          12.3129    2.3715    0.0000 H       1  UNL1        0.0274
    151 H          12.7889    3.1078    0.0000 H       1  UNL1        0.0274
    152 H           5.5577   -7.3033    0.0000 H       1  UNL1        0.2100
    153 H           8.7273    8.2364    0.0000 H       1  UNL1        0.2100
    154 H          10.4248   -8.4933    0.0000 H       1  UNL1        0.0671
    155 H           4.1548   -4.8733    0.0000 H       1  UNL1        0.2095
    156 H           9.8878   -9.8033    0.0000 H       1  UNL1        0.0648
    157 H           7.6189   -8.8733    0.0000 H       1  UNL1        0.0658
    158 H           8.4849   -9.9933    0.0000 H       1  UNL1        0.0647
    159 H           5.3490    7.2982    0.0000 H       1  UNL1        0.0937
    160 H          10.7539   -7.0633    0.0000 H       1  UNL1        0.2101
    161 H           6.8912  -10.1582    0.0000 H       1  UNL1        0.0724
    162 H           7.6883  -10.1582    0.0000 H       1  UNL1        0.0724
    163 H           6.0366    9.4300    0.0000 H       1  UNL1        0.0671
    164 H          10.7539  -10.3033    0.0000 H       1  UNL1        0.2100
    165 H           8.4849  -10.9933    0.0000 H       1  UNL1        0.2100
    166 H           4.7597   10.0416    0.0000 H       1  UNL1        0.0648
    167 H           3.7005    7.8299    0.0000 H       1  UNL1        0.0647
    168 H           3.5917    9.2415    0.0000 H       1  UNL1        0.0647
    169 H           7.0143    9.6400    0.0000 H       1  UNL1        0.2101
    170 H           2.8902    8.8296    0.0000 H       1  UNL1        0.0584
    171 H           2.2990    8.2950    0.0000 H       1  UNL1        0.0584
    172 H           5.0667   10.9933    0.0000 H       1  UNL1        0.2100
    173 H           2.9210    9.9832    0.0000 H       1  UNL1        0.2100
    174 H           2.0000    7.1281    0.0000 H       1  UNL1        0.2095
    175 H           5.0902   -8.7083    0.0000 H       1  UNL1        0.0493
    176 H           4.2932   -8.7083    0.0000 H       1  UNL1        0.0493
    177 H           2.4227   -9.4933    0.0000 H       1  UNL1        0.2951
@<TRIPOS>BOND
     1    36     1    1
     2     1   119    1
     3    45     2    1
     4    53     2    1
     5    46     3    1
     6    54     3    1
     7     4    53    1
     8     4    60    1
     9     5    54    1
    10     5    61    1
    11    55     6    1
    12    67     6    1
    13    56     7    1
    14     7   138    1
    15    58     8    1
    16     8   144    1
    17    59     9    1
    18     9   145    1
    19    62    10    1
    20    10   152    1
    21    63    11    1
    22    11   153    1
    23    12    66    1
    24    74    12    1
    25    13    67    1
    26    13    72    1
    27    14    65    1
    28    14   155    1
    29    70    15    1
    30    15   160    1
    31    71    16    1
    32    16   164    1
    33    17    74    1
    34    17    78    1
    35    73    18    1
    36    18   165    1
    37    19    75    1
    38    19    81    1
    39    76    20    1
    40    20   169    1
    41    77    21    1
    42    21   172    1
    43    79    22    1
    44    22   173    1
    45    23    80    1
    46    23   174    1
    47    24    81    2
    48    25    83    1
    49    25   177    1
    50    26    83    2
    51    27    28    1
    52    27    29    1
    53    27    33    1
    54    27    42    1
    55    28    31    1
    56    28    37    1
    57    28    43    1
    58    29    30    1
    59    29    35    1
    60    29    84    1
    61    30    32    1
    62    30    41    1
    63    30    44    1
    64    31    34    1
    65    31    36    1
    66    31    85    1
    67    32    38    1
    68    32    39    1
    69    32    86    1
    70    33    38    1
    71    33    87    1
    72    33    88    1
    73    34    40    1
    74    34    46    1
    75    34    89    1
    76    35    36    1
    77    35    90    1
    78    35    91    1
    79    36    92    1
    80    37    40    1
    81    37    93    1
    82    37    94    1
    83    38    95    1
    84    38    96    1
    85    39    45    1
    86    39    48    1
    87    39    49    1
    88    40    97    1
    89    40    98    1
    90    41    47    1
    91    41    99    1
    92    41   100    1
    93    42   101    1
    94    42   102    1
    95    42   103    1
    96    43   104    1
    97    43   105    1
    98    43   106    1
    99    44   107    1
   100    44   108    1
   101    44   109    1
   102    45    47    1
   103    45   110    1
   104    46    50    1
   105    46    51    1
   106    47   111    1
   107    47   112    1
   108    48   113    1
   109    48   117    1
   110    48   118    1
   111    49   114    1
   112    49   115    1
   113    49   116    1
   114    50    52    1
   115    50   120    1
   116    50   121    1
   117    51   122    1
   118    51   123    1
   119    51   124    1
   120    52    57    1
   121    52   125    1
   122    52   126    1
   123    53    55    1
   124    53   127    1
   125    54    56    1
   126    54   128    1
   127    55    58    1
   128    55   129    1
   129    56    59    1
   130    56   130    1
   131    57    64    2
   132    57   131    1
   133    58    62    1
   134    58   132    1
   135    59    63    1
   136    59   133    1
   137    60    62    1
   138    60    65    1
   139    60   134    1
   140    61    63    1
   141    61    66    1
   142    61   135    1
   143    62   136    1
   144    63   137    1
   145    64    68    1
   146    64    69    1
   147    65   139    1
   148    65   140    1
   149    66   141    1
   150    66   142    1
   151    67    70    1
   152    67   143    1
   153    68   147    1
   154    68   148    1
   155    68   149    1
   156    69   146    1
   157    69   150    1
   158    69   151    1
   159    70    71    1
   160    70   154    1
   161    71    73    1
   162    71   156    1
   163    72    73    1
   164    72    75    1
   165    72   157    1
   166    73   158    1
   167    74    76    1
   168    74   159    1
   169    75   161    1
   170    75   162    1
   171    76    77    1
   172    76   163    1
   173    77    79    1
   174    77   166    1
   175    78    79    1
   176    78    80    1
   177    78   167    1
   178    79   168    1
   179    80   170    1
   180    80   171    1
   181    81    82    1
   182    82    83    1
   183    82   175    1
   184    82   176    1
