@<TRIPOS>MOLECULE
IMPHY014358
 10 10 0 0 0
SMALL
GASTEIGER

@<TRIPOS>ATOM
      1 O           4.3660   -0.8660    0.0000 O.3     1  UNL1       -0.4773
      2 O           4.3660    0.8660    0.0000 O.2     1  UNL1       -0.2455
      3 C           2.0000    0.5000    0.0000 C.3     1  UNL1       -0.0022
      4 C           2.8660    0.0000    0.0000 C.2     1  UNL1        0.0365
      5 C           2.0000   -0.5000    0.0000 C.2     1  UNL1       -0.0692
      6 C           3.8660    0.0000    0.0000 C.2     1  UNL1        0.3328
      7 H           2.2120    1.0826    0.0000 H       1  UNL1        0.0358
      8 H           1.3894    0.6077    0.0000 H       1  UNL1        0.0358
      9 H           1.6900   -1.0369    0.0000 H       1  UNL1        0.0580
     10 H           4.9860   -0.8660    0.0000 H       1  UNL1        0.2954
@<TRIPOS>BOND
     1     1     6    1
     2     1    10    1
     3     2     6    2
     4     3     4    1
     5     3     5    1
     6     3     7    1
     7     3     8    1
     8     4     5    2
     9     4     6    1
    10     5     9    1
