@<TRIPOS>MOLECULE
IMPHY009622
 15 15 0 0 0
SMALL
GASTEIGER

@<TRIPOS>ATOM
      1 N           2.8660   -0.5000    0.0000 N.ar    1  UNL1       -0.2065
      2 C           2.0000    0.0000    0.0000 C.ar    1  UNL1        0.1710
      3 C           3.7320    0.0000    0.0000 C.ar    1  UNL1        0.1710
      4 C           2.8660   -1.5000    0.0000 C.3     1  UNL1        0.1404
      5 C           2.0000    1.0000    0.0000 C.ar    1  UNL1        0.0021
      6 C           3.7320    1.0000    0.0000 C.ar    1  UNL1        0.0021
      7 C           2.8660    1.5000    0.0000 C.ar    1  UNL1       -0.0506
      8 H           1.4631   -0.3100    0.0000 H       1  UNL1        0.1376
      9 H           4.2690   -0.3100    0.0000 H       1  UNL1        0.1376
     10 H           2.2460   -1.5000    0.0000 H       1  UNL1        0.0993
     11 H           2.8660   -2.1200    0.0000 H       1  UNL1        0.0993
     12 H           3.4860   -1.5000    0.0000 H       1  UNL1        0.0993
     13 H           1.4631    1.3100    0.0000 H       1  UNL1        0.0677
     14 H           4.2690    1.3100    0.0000 H       1  UNL1        0.0677
     15 H           2.8660    2.1200    0.0000 H       1  UNL1        0.0621
@<TRIPOS>UNITY_ATOM_ATTR
1 1
charge 1
@<TRIPOS>BOND
     1     1     2   ar
     2     1     3   ar
     3     1     4    1
     4     2     5   ar
     5     2     8    1
     6     3     6   ar
     7     3     9    1
     8     4    10    1
     9     4    11    1
    10     4    12    1
    11     5     7   ar
    12     5    13    1
    13     6     7   ar
    14     6    14    1
    15     7    15    1
