@<TRIPOS>MOLECULE
IMPHY006909
 18 18 0 0 0
SMALL
GASTEIGER

@<TRIPOS>ATOM
      1 O           6.8671    0.3450    0.0000 O.3     1  UNL1       -0.5049
      2 O           2.5369   -0.1550    0.0000 O.3     1  UNL1       -0.4771
      3 O           3.4030    1.3450    0.0000 O.2     1  UNL1       -0.2451
      4 N           5.1350    1.3450    0.0000 N.pl3   1  UNL1       -0.3545
      5 C           5.1350    0.3450    0.0000 C.ar    1  UNL1        0.0807
      6 C           4.2690   -0.1550    0.0000 C.ar    1  UNL1        0.0829
      7 C           6.0010   -0.1550    0.0000 C.ar    1  UNL1        0.1382
      8 C           4.2690   -1.1550    0.0000 C.ar    1  UNL1       -0.0458
      9 C           6.0010   -1.1550    0.0000 C.ar    1  UNL1       -0.0183
     10 C           5.1350   -1.6550    0.0000 C.ar    1  UNL1       -0.0574
     11 C           3.4030    0.3450    0.0000 C.2     1  UNL1        0.3387
     12 H           3.7320   -1.4650    0.0000 H       1  UNL1        0.0626
     13 H           6.5380   -1.4650    0.0000 H       1  UNL1        0.0655
     14 H           5.1350   -2.2750    0.0000 H       1  UNL1        0.0619
     15 H           5.6720    1.6550    0.0000 H       1  UNL1        0.1424
     16 H           4.5981    1.6550    0.0000 H       1  UNL1        0.1424
     17 H           7.4040    0.0350    0.0000 H       1  UNL1        0.2922
     18 H           2.0000    0.1550    0.0000 H       1  UNL1        0.2954
@<TRIPOS>BOND
     1     1     7    1
     2     1    17    1
     3     2    11    1
     4     2    18    1
     5     3    11    2
     6     4     5    1
     7     4    15    1
     8     4    16    1
     9     5     6   ar
    10     5     7   ar
    11     6     8   ar
    12     6    11    1
    13     7     9   ar
    14     8    10   ar
    15     8    12    1
    16     9    10   ar
    17     9    13    1
    18    10    14    1
