@<TRIPOS>MOLECULE
IMPHY007273
 81 80 0 0 0
SMALL
GASTEIGER

@<TRIPOS>ATOM
      1 O           2.5369    0.2500    0.0000 O.3     1  UNL1       -0.3950
      2 C          13.7953   -0.2500    0.0000 C.3     1  UNL1       -0.0531
      3 C          14.6613    0.2500    0.0000 C.3     1  UNL1       -0.0531
      4 C          12.9292    0.2500    0.0000 C.3     1  UNL1       -0.0531
      5 C          15.5273   -0.2500    0.0000 C.3     1  UNL1       -0.0531
      6 C          12.0632   -0.2500    0.0000 C.3     1  UNL1       -0.0531
      7 C          16.3933    0.2500    0.0000 C.3     1  UNL1       -0.0531
      8 C          11.1972    0.2500    0.0000 C.3     1  UNL1       -0.0531
      9 C          17.2594   -0.2500    0.0000 C.3     1  UNL1       -0.0531
     10 C          10.3312   -0.2500    0.0000 C.3     1  UNL1       -0.0531
     11 C          18.1254    0.2500    0.0000 C.3     1  UNL1       -0.0531
     12 C           9.4651    0.2500    0.0000 C.3     1  UNL1       -0.0531
     13 C          18.9914   -0.2500    0.0000 C.3     1  UNL1       -0.0531
     14 C           8.5991   -0.2500    0.0000 C.3     1  UNL1       -0.0531
     15 C          19.8574    0.2500    0.0000 C.3     1  UNL1       -0.0531
     16 C           7.7331    0.2500    0.0000 C.3     1  UNL1       -0.0531
     17 C          20.7235   -0.2500    0.0000 C.3     1  UNL1       -0.0531
     18 C           6.8671   -0.2500    0.0000 C.3     1  UNL1       -0.0531
     19 C          21.5895    0.2500    0.0000 C.3     1  UNL1       -0.0531
     20 C           6.0010    0.2500    0.0000 C.3     1  UNL1       -0.0530
     21 C          22.4555   -0.2500    0.0000 C.3     1  UNL1       -0.0531
     22 C           5.1350   -0.2500    0.0000 C.3     1  UNL1       -0.0510
     23 C          23.3215    0.2500    0.0000 C.3     1  UNL1       -0.0533
     24 C           4.2690    0.2500    0.0000 C.3     1  UNL1       -0.0297
     25 C          24.1876   -0.2500    0.0000 C.3     1  UNL1       -0.0559
     26 C           3.4030   -0.2500    0.0000 C.3     1  UNL1        0.0442
     27 C          25.0536    0.2500    0.0000 C.3     1  UNL1       -0.0653
     28 H          13.3967   -0.7249    0.0000 H       1  UNL1        0.0265
     29 H          14.1938   -0.7249    0.0000 H       1  UNL1        0.0265
     30 H          15.0598    0.7249    0.0000 H       1  UNL1        0.0265
     31 H          14.2628    0.7249    0.0000 H       1  UNL1        0.0265
     32 H          13.3278    0.7249    0.0000 H       1  UNL1        0.0265
     33 H          12.5307    0.7249    0.0000 H       1  UNL1        0.0265
     34 H          15.1288   -0.7249    0.0000 H       1  UNL1        0.0265
     35 H          15.9258   -0.7249    0.0000 H       1  UNL1        0.0265
     36 H          11.6647   -0.7249    0.0000 H       1  UNL1        0.0265
     37 H          12.4617   -0.7249    0.0000 H       1  UNL1        0.0265
     38 H          16.7919    0.7249    0.0000 H       1  UNL1        0.0265
     39 H          15.9948    0.7249    0.0000 H       1  UNL1        0.0265
     40 H          11.5957    0.7249    0.0000 H       1  UNL1        0.0265
     41 H          10.7987    0.7249    0.0000 H       1  UNL1        0.0265
     42 H          16.8608   -0.7249    0.0000 H       1  UNL1        0.0265
     43 H          17.6579   -0.7249    0.0000 H       1  UNL1        0.0265
     44 H           9.9326   -0.7249    0.0000 H       1  UNL1        0.0265
     45 H          10.7297   -0.7249    0.0000 H       1  UNL1        0.0265
     46 H          18.5239    0.7249    0.0000 H       1  UNL1        0.0265
     47 H          17.7269    0.7249    0.0000 H       1  UNL1        0.0265
     48 H           9.8637    0.7249    0.0000 H       1  UNL1        0.0265
     49 H           9.0666    0.7249    0.0000 H       1  UNL1        0.0265
     50 H          18.5929   -0.7249    0.0000 H       1  UNL1        0.0265
     51 H          19.3899   -0.7249    0.0000 H       1  UNL1        0.0265
     52 H           8.2006   -0.7249    0.0000 H       1  UNL1        0.0265
     53 H           8.9976   -0.7249    0.0000 H       1  UNL1        0.0265
     54 H          20.2560    0.7249    0.0000 H       1  UNL1        0.0265
     55 H          19.4589    0.7249    0.0000 H       1  UNL1        0.0265
     56 H           8.1316    0.7249    0.0000 H       1  UNL1        0.0265
     57 H           7.3346    0.7249    0.0000 H       1  UNL1        0.0265
     58 H          20.3249   -0.7249    0.0000 H       1  UNL1        0.0265
     59 H          21.1220   -0.7249    0.0000 H       1  UNL1        0.0265
     60 H           6.4685   -0.7249    0.0000 H       1  UNL1        0.0265
     61 H           7.2656   -0.7249    0.0000 H       1  UNL1        0.0265
     62 H          21.9880    0.7249    0.0000 H       1  UNL1        0.0265
     63 H          21.1910    0.7249    0.0000 H       1  UNL1        0.0265
     64 H           6.3996    0.7249    0.0000 H       1  UNL1        0.0265
     65 H           5.6025    0.7249    0.0000 H       1  UNL1        0.0265
     66 H          22.0570   -0.7249    0.0000 H       1  UNL1        0.0265
     67 H          22.8540   -0.7249    0.0000 H       1  UNL1        0.0265
     68 H           4.7365   -0.7249    0.0000 H       1  UNL1        0.0266
     69 H           5.5335   -0.7249    0.0000 H       1  UNL1        0.0266
     70 H          23.7201    0.7249    0.0000 H       1  UNL1        0.0265
     71 H          22.9230    0.7249    0.0000 H       1  UNL1        0.0265
     72 H           4.6675    0.7249    0.0000 H       1  UNL1        0.0287
     73 H           3.8705    0.7249    0.0000 H       1  UNL1        0.0287
     74 H          23.7890   -0.7249    0.0000 H       1  UNL1        0.0263
     75 H          24.5861   -0.7249    0.0000 H       1  UNL1        0.0263
     76 H           3.0044   -0.7249    0.0000 H       1  UNL1        0.0557
     77 H           3.8015   -0.7249    0.0000 H       1  UNL1        0.0557
     78 H          25.3636   -0.2869    0.0000 H       1  UNL1        0.0230
     79 H          25.5905    0.5600    0.0000 H       1  UNL1        0.0230
     80 H          24.7436    0.7869    0.0000 H       1  UNL1        0.0230
     81 H           2.0000   -0.0600    0.0000 H       1  UNL1        0.2094
@<TRIPOS>BOND
     1     1    26    1
     2     1    81    1
     3     2     3    1
     4     2     4    1
     5     2    28    1
     6     2    29    1
     7     3     5    1
     8     3    30    1
     9     3    31    1
    10     4     6    1
    11     4    32    1
    12     4    33    1
    13     5     7    1
    14     5    34    1
    15     5    35    1
    16     6     8    1
    17     6    36    1
    18     6    37    1
    19     7     9    1
    20     7    38    1
    21     7    39    1
    22     8    10    1
    23     8    40    1
    24     8    41    1
    25     9    11    1
    26     9    42    1
    27     9    43    1
    28    10    12    1
    29    10    44    1
    30    10    45    1
    31    11    13    1
    32    11    46    1
    33    11    47    1
    34    12    14    1
    35    12    48    1
    36    12    49    1
    37    13    15    1
    38    13    50    1
    39    13    51    1
    40    14    16    1
    41    14    52    1
    42    14    53    1
    43    15    17    1
    44    15    54    1
    45    15    55    1
    46    16    18    1
    47    16    56    1
    48    16    57    1
    49    17    19    1
    50    17    58    1
    51    17    59    1
    52    18    20    1
    53    18    60    1
    54    18    61    1
    55    19    21    1
    56    19    62    1
    57    19    63    1
    58    20    22    1
    59    20    64    1
    60    20    65    1
    61    21    23    1
    62    21    66    1
    63    21    67    1
    64    22    24    1
    65    22    68    1
    66    22    69    1
    67    23    25    1
    68    23    70    1
    69    23    71    1
    70    24    26    1
    71    24    72    1
    72    24    73    1
    73    25    27    1
    74    25    74    1
    75    25    75    1
    76    26    76    1
    77    26    77    1
    78    27    78    1
    79    27    79    1
    80    27    80    1
