@<TRIPOS>MOLECULE
IMPHY006321
 11 10 0 0 0
SMALL
GASTEIGER

@<TRIPOS>ATOM
      1 S           2.0000    0.5000    0.0000 S.2     1  UNL1        0.0203
      2 N           3.7320   -0.5000    0.0000 N.2     1  UNL1       -0.2305
      3 C           4.5981    0.0000    0.0000 C.3     1  UNL1        0.0674
      4 C           5.4641   -0.5000    0.0000 C.2     1  UNL1       -0.0693
      5 C           6.3301    0.0000    0.0000 C.2     1  UNL1       -0.1009
      6 C           2.8660    0.0000    0.0000 C.1     1  UNL1        0.0361
      7 H           4.9966    0.4749    0.0000 H       1  UNL1        0.0560
      8 H           4.1996    0.4749    0.0000 H       1  UNL1        0.0560
      9 H           5.4641   -1.1200    0.0000 H       1  UNL1        0.0585
     10 H           6.8671   -0.3100    0.0000 H       1  UNL1        0.0532
     11 H           6.3301    0.6200    0.0000 H       1  UNL1        0.0532
@<TRIPOS>BOND
     1     1     6    2
     2     2     3    1
     3     2     6    2
     4     3     4    1
     5     3     7    1
     6     3     8    1
     7     4     5    2
     8     4     9    1
     9     5    10    1
    10     5    11    1
