@<TRIPOS>MOLECULE
IMPHY007672
 85 91 0 0 0
SMALL
GASTEIGER

@<TRIPOS>ATOM
      1 O           3.2704   -1.5858    0.0000 O.3     1  UNL1       -0.3634
      2 O           6.0538    2.2374    0.0000 O.3     1  UNL1       -0.3403
      3 O           2.5357   -0.8077    0.0000 O.3     1  UNL1       -0.3911
      4 O           7.0442   -2.3996    0.0000 O.3     1  UNL1       -0.3836
      5 O           6.1340    0.4382    0.0000 O.3     1  UNL1       -0.3910
      6 O           7.0120   -0.3082    0.0000 O.2     1  UNL1       -0.2943
      7 O           4.5357    3.2064    0.0000 O.3     1  UNL1       -0.4607
      8 O           5.1877    3.7374    0.0000 O.3     1  UNL1       -0.4342
      9 O           7.0778   -5.0695    0.0000 O.2     1  UNL1       -0.4708
     10 O           2.8885    3.7417    0.0000 O.2     1  UNL1       -0.2512
     11 O           6.9198    3.7374    0.0000 O.2     1  UNL1       -0.2505
     12 C           4.2974   -1.9169    0.0000 C.3     1  UNL1        0.1129
     13 C           4.3058   -0.8319    0.0000 C.3     1  UNL1        0.0362
     14 C           5.2370   -2.4594    0.0000 C.3     1  UNL1        0.0398
     15 C           3.4977   -2.6406    0.0000 C.3     1  UNL1        0.0903
     16 C           5.2038   -0.3041    0.0000 C.3     1  UNL1        0.0409
     17 C           5.1877    0.7374    0.0000 C.3     1  UNL1        0.0342
     18 C           5.0100   -3.5138    0.0000 C.3     1  UNL1        0.0004
     19 C           4.3217    1.2374    0.0000 C.3     1  UNL1       -0.0134
     20 C           3.4037   -0.3111    0.0000 C.3     1  UNL1        0.0643
     21 C           3.9373   -3.6256    0.0000 C.3     1  UNL1       -0.0162
     22 C           6.1725   -1.9096    0.0000 C.3     1  UNL1        0.1219
     23 C           3.4117    0.7305    0.0000 C.3     1  UNL1       -0.0219
     24 C           6.1557   -0.8248    0.0000 C.2     1  UNL1        0.1666
     25 C           4.3217    2.2374    0.0000 C.3     1  UNL1        0.0708
     26 C           3.3223   -1.0131    0.0000 C.3     1  UNL1       -0.0538
     27 C           5.3908    1.1073    0.0000 C.3     1  UNL1        0.0673
     28 C           6.1031   -2.9594    0.0000 C.3     1  UNL1       -0.0535
     29 C           6.0538    1.2374    0.0000 C.3     1  UNL1        0.0606
     30 C           4.7436    2.2283    0.0000 C.3     1  UNL1        0.1167
     31 C           5.4745    1.9029    0.0000 C.3     1  UNL1        0.0118
     32 C           5.1877    2.7374    0.0000 C.3     1  UNL1        0.2137
     33 C           5.6779   -4.2581    0.0000 C.ar    1  UNL1       -0.0058
     34 C           3.4557    2.7374    0.0000 C.3     1  UNL1       -0.0501
     35 C           5.4683   -5.2359    0.0000 C.ar    1  UNL1       -0.0205
     36 C           6.6726   -4.1553    0.0000 C.ar    1  UNL1        0.0951
     37 C           6.3334   -5.7374    0.0000 C.ar    1  UNL1        0.0919
     38 C           3.8666    3.9496    0.0000 C.2     1  UNL1        0.3042
     39 C           6.0538    4.2374    0.0000 C.2     1  UNL1        0.3118
     40 C           6.0538    5.2374    0.0000 C.3     1  UNL1        0.0509
     41 C           4.1756    4.9006    0.0000 C.3     1  UNL1        0.0332
     42 C           6.9198    5.7374    0.0000 C.3     1  UNL1       -0.0525
     43 C           5.1877    5.7374    0.0000 C.3     1  UNL1       -0.0525
     44 H           2.6898   -2.9048    0.0000 H       1  UNL1        0.0625
     45 H           5.9316    0.1350    0.0000 H       1  UNL1        0.0392
     46 H           4.7871   -4.0923    0.0000 H       1  UNL1        0.0358
     47 H           3.5856    1.6624    0.0000 H       1  UNL1        0.0317
     48 H           2.8686    0.0020    0.0000 H       1  UNL1        0.0600
     49 H           3.3477   -3.8174    0.0000 H       1  UNL1        0.0297
     50 H           4.0660   -4.2321    0.0000 H       1  UNL1        0.0297
     51 H           6.7052   -1.5924    0.0000 H       1  UNL1        0.0679
     52 H           3.2072    1.3158    0.0000 H       1  UNL1        0.0293
     53 H           2.8001    0.6291    0.0000 H       1  UNL1        0.0293
     54 H           3.2100   -0.4034    0.0000 H       1  UNL1        0.0237
     55 H           2.7126   -1.1254    0.0000 H       1  UNL1        0.0237
     56 H           3.4347   -1.6228    0.0000 H       1  UNL1        0.0237
     57 H           5.9696    1.3295    0.0000 H       1  UNL1        0.0601
     58 H           5.7931   -3.4963    0.0000 H       1  UNL1        0.0237
     59 H           6.6400   -3.2694    0.0000 H       1  UNL1        0.0237
     60 H           6.4131   -2.4224    0.0000 H       1  UNL1        0.0237
     61 H           6.2658    0.6548    0.0000 H       1  UNL1        0.0568
     62 H           6.6644    1.3450    0.0000 H       1  UNL1        0.0568
     63 H           5.2255    2.6185    0.0000 H       1  UNL1        0.0742
     64 H           6.0809    1.7740    0.0000 H       1  UNL1        0.0326
     65 H           5.6660    2.4926    0.0000 H       1  UNL1        0.0326
     66 H           4.6508    3.0474    0.0000 H       1  UNL1        0.1064
     67 H           3.7657    3.2743    0.0000 H       1  UNL1        0.0238
     68 H           2.9188    3.0474    0.0000 H       1  UNL1        0.0238
     69 H           3.1457    2.2004    0.0000 H       1  UNL1        0.0238
     70 H           2.0000   -0.4957    0.0000 H       1  UNL1        0.2098
     71 H           7.5775   -2.0834    0.0000 H       1  UNL1        0.2104
     72 H           6.7236    0.6297    0.0000 H       1  UNL1        0.2098
     73 H           4.9014   -5.4871    0.0000 H       1  UNL1        0.0652
     74 H           6.9835   -3.6189    0.0000 H       1  UNL1        0.1032
     75 H           6.3972   -6.3541    0.0000 H       1  UNL1        0.1029
     76 H           6.0538    5.8574    0.0000 H       1  UNL1        0.0408
     77 H           4.7652    4.7091    0.0000 H       1  UNL1        0.0342
     78 H           4.3672    5.4903    0.0000 H       1  UNL1        0.0342
     79 H           3.5859    5.0922    0.0000 H       1  UNL1        0.0342
     80 H           7.2298    5.2004    0.0000 H       1  UNL1        0.0237
     81 H           5.4977    6.2743    0.0000 H       1  UNL1        0.0237
     82 H           4.6508    6.0474    0.0000 H       1  UNL1        0.0237
     83 H           4.8777    5.2004    0.0000 H       1  UNL1        0.0237
     84 H           7.4567    6.0474    0.0000 H       1  UNL1        0.0237
     85 H           6.6098    6.2743    0.0000 H       1  UNL1        0.0237
@<TRIPOS>BOND
     1    12     1    1
     2     1    15    1
     3     2    29    1
     4     2    32    1
     5    20     3    1
     6     3    70    1
     7    22     4    1
     8     4    71    1
     9    27     5    1
    10     5    72    1
    11     6    24    2
    12    30     7    1
    13     7    38    1
    14    32     8    1
    15     8    39    1
    16     9    36   ar
    17     9    37   ar
    18    10    38    2
    19    11    39    2
    20    12    13    1
    21    12    14    1
    22    12    15    1
    23    13    16    1
    24    13    20    1
    25    13    26    1
    26    14    18    1
    27    14    22    1
    28    14    28    1
    29    15    21    1
    30    15    44    1
    31    16    17    1
    32    16    24    1
    33    16    45    1
    34    17    19    1
    35    17    27    1
    36    17    29    1
    37    18    21    1
    38    18    33    1
    39    18    46    1
    40    19    23    1
    41    19    25    1
    42    19    47    1
    43    20    23    1
    44    20    48    1
    45    21    49    1
    46    21    50    1
    47    22    24    1
    48    22    51    1
    49    23    52    1
    50    23    53    1
    51    25    30    1
    52    25    32    1
    53    25    34    1
    54    26    54    1
    55    26    55    1
    56    26    56    1
    57    27    31    1
    58    27    57    1
    59    28    58    1
    60    28    59    1
    61    28    60    1
    62    29    61    1
    63    29    62    1
    64    30    31    1
    65    30    63    1
    66    31    64    1
    67    31    65    1
    68    32    66    1
    69    33    35   ar
    70    33    36   ar
    71    34    67    1
    72    34    68    1
    73    34    69    1
    74    35    37   ar
    75    35    73    1
    76    36    74    1
    77    37    75    1
    78    38    41    1
    79    39    40    1
    80    40    42    1
    81    40    43    1
    82    40    76    1
    83    41    77    1
    84    41    78    1
    85    41    79    1
    86    42    80    1
    87    42    84    1
    88    42    85    1
    89    43    81    1
    90    43    82    1
    91    43    83    1
