@<TRIPOS>MOLECULE
IMPHY000243
 94 99 0 0 0
SMALL
GASTEIGER

@<TRIPOS>ATOM
      1 O          10.4037    0.0950    0.0000 O.3     1  UNL1       -0.3313
      2 O           9.5376   -2.4050    0.0000 O.3     1  UNL1       -0.3461
      3 O           7.8056   -2.4050    0.0000 O.3     1  UNL1       -0.3431
      4 O          11.2697   -2.4050    0.0000 O.3     1  UNL1       -0.3865
      5 O          11.2697    1.5950    0.0000 O.3     1  UNL1       -0.4532
      6 O          13.0017   -1.4050    0.0000 O.3     1  UNL1       -0.3864
      7 O           4.2755    3.6258    0.0000 O.3     1  UNL1       -0.3313
      8 O          13.0017    0.5950    0.0000 O.3     1  UNL1       -0.3829
      9 O           9.5376   -4.4050    0.0000 O.3     1  UNL1       -0.3841
     10 O           7.8056   -5.4050    0.0000 O.3     1  UNL1       -0.3864
     11 O           6.0736   -4.4050    0.0000 O.3     1  UNL1       -0.3866
     12 O           6.0075    3.6192    0.0000 O.3     1  UNL1       -0.4606
     13 O           4.2639    0.6258    0.0000 O.3     1  UNL1       -0.3864
     14 O           2.5357    1.6325    0.0000 O.3     1  UNL1       -0.3865
     15 O           5.9998    1.6192    0.0000 O.3     1  UNL1       -0.3829
     16 O           2.5473    4.6325    0.0000 O.3     1  UNL1       -0.3924
     17 O           9.5376    3.5950    0.0000 O.2     1  UNL1       -0.4507
     18 O           9.5376    0.5950    0.0000 O.2     1  UNL1       -0.2830
     19 O           7.7892    0.5604    0.0000 O.3     1  UNL1       -0.5058
     20 O          13.8678    3.0950    0.0000 O.3     1  UNL1       -0.5033
     21 O          13.8678    5.0950    0.0000 O.3     1  UNL1       -0.5033
     22 C          10.4037   -0.9050    0.0000 C.3     1  UNL1        0.1144
     23 C          11.2697   -1.4050    0.0000 C.3     1  UNL1        0.1120
     24 C          12.1357   -0.9050    0.0000 C.3     1  UNL1        0.1152
     25 C          12.1357    0.0950    0.0000 C.3     1  UNL1        0.1454
     26 C           8.6716   -3.9050    0.0000 C.3     1  UNL1        0.1341
     27 C           8.6716   -2.9050    0.0000 C.3     1  UNL1        0.1879
     28 C           7.8056   -4.4050    0.0000 C.3     1  UNL1        0.1140
     29 C          11.2697    0.5950    0.0000 C.3     1  UNL1        0.2311
     30 C           6.9396   -3.9050    0.0000 C.3     1  UNL1        0.1095
     31 C           9.5376   -1.4050    0.0000 C.3     1  UNL1        0.0796
     32 C           6.9396   -2.9050    0.0000 C.3     1  UNL1        0.0873
     33 C           4.2678    1.6258    0.0000 C.3     1  UNL1        0.1152
     34 C           3.4037    2.1292    0.0000 C.3     1  UNL1        0.1120
     35 C           5.1357    2.1225    0.0000 C.3     1  UNL1        0.1454
     36 C           3.4075    3.1292    0.0000 C.3     1  UNL1        0.1140
     37 C           5.1396    3.1225    0.0000 C.3     1  UNL1        0.2308
     38 C           6.0736   -2.4050    0.0000 C.3     1  UNL1       -0.0361
     39 C           2.5434    3.6325    0.0000 C.3     1  UNL1        0.0731
     40 C          10.4037    2.0950    0.0000 C.ar    1  UNL1        0.2138
     41 C           6.8716    3.1158    0.0000 C.ar    1  UNL1        0.1310
     42 C          10.4037    3.0950    0.0000 C.ar    1  UNL1        0.1810
     43 C           9.5376    1.5950    0.0000 C.ar    1  UNL1        0.2382
     44 C           8.6716    2.0950    0.0000 C.ar    1  UNL1        0.1092
     45 C           8.6716    3.0950    0.0000 C.ar    1  UNL1        0.1465
     46 C           7.7777    3.6297    0.0000 C.ar    1  UNL1        0.0235
     47 C           6.8716    2.0742    0.0000 C.ar    1  UNL1        0.0226
     48 C           7.7777    1.5603    0.0000 C.ar    1  UNL1        0.1348
     49 C          11.2697    3.5950    0.0000 C.ar    1  UNL1        0.0247
     50 C          12.1357    3.0950    0.0000 C.ar    1  UNL1       -0.0057
     51 C          11.2697    4.5950    0.0000 C.ar    1  UNL1       -0.0473
     52 C          13.0017    3.5950    0.0000 C.ar    1  UNL1        0.1589
     53 C          12.1357    5.0950    0.0000 C.ar    1  UNL1       -0.0159
     54 C          13.0017    4.5950    0.0000 C.ar    1  UNL1        0.1583
     55 H           9.8667   -0.5950    0.0000 H       1  UNL1        0.0647
     56 H          10.7328   -1.7150    0.0000 H       1  UNL1        0.0647
     57 H          12.6727   -0.5950    0.0000 H       1  UNL1        0.0648
     58 H          12.1357    0.7150    0.0000 H       1  UNL1        0.0683
     59 H           9.2086   -3.5950    0.0000 H       1  UNL1        0.0671
     60 H           8.6716   -2.2850    0.0000 H       1  UNL1        0.0937
     61 H           8.3425   -4.7150    0.0000 H       1  UNL1        0.0648
     62 H          10.7328    0.9050    0.0000 H       1  UNL1        0.1084
     63 H           6.4026   -3.5950    0.0000 H       1  UNL1        0.0646
     64 H           9.3256   -0.8224    0.0000 H       1  UNL1        0.0587
     65 H           8.9271   -1.5127    0.0000 H       1  UNL1        0.0587
     66 H           6.9396   -2.2850    0.0000 H       1  UNL1        0.0621
     67 H           3.7296    1.3179    0.0000 H       1  UNL1        0.0648
     68 H           2.8680    2.4412    0.0000 H       1  UNL1        0.0647
     69 H           5.6738    2.4304    0.0000 H       1  UNL1        0.0683
     70 H           3.4099    3.7492    0.0000 H       1  UNL1        0.0647
     71 H           5.1420    3.7425    0.0000 H       1  UNL1        0.1084
     72 H           6.3835   -1.8681    0.0000 H       1  UNL1        0.0255
     73 H           5.5366   -2.0950    0.0000 H       1  UNL1        0.0255
     74 H           5.7636   -2.9419    0.0000 H       1  UNL1        0.0255
     75 H          10.7328   -2.7150    0.0000 H       1  UNL1        0.2100
     76 H          13.0017   -2.0250    0.0000 H       1  UNL1        0.2100
     77 H          13.5387    0.2850    0.0000 H       1  UNL1        0.2102
     78 H          10.0746   -4.0950    0.0000 H       1  UNL1        0.2101
     79 H           7.2687   -5.7150    0.0000 H       1  UNL1        0.2100
     80 H           1.9333    3.7425    0.0000 H       1  UNL1        0.0584
     81 H           2.3292    3.0507    0.0000 H       1  UNL1        0.0584
     82 H           5.5366   -4.0950    0.0000 H       1  UNL1        0.2100
     83 H           3.7258    0.3179    0.0000 H       1  UNL1        0.2100
     84 H           2.0000    1.9446    0.0000 H       1  UNL1        0.2100
     85 H           5.9974    0.9992    0.0000 H       1  UNL1        0.2102
     86 H           7.7848    4.2496    0.0000 H       1  UNL1        0.0691
     87 H           6.3359    1.7621    0.0000 H       1  UNL1        0.0691
     88 H           2.0116    4.9446    0.0000 H       1  UNL1        0.2095
     89 H          12.1357    2.4750    0.0000 H       1  UNL1        0.0662
     90 H          10.7328    4.9050    0.0000 H       1  UNL1        0.0626
     91 H           7.2559    0.2442    0.0000 H       1  UNL1        0.2922
     92 H          12.1357    5.7150    0.0000 H       1  UNL1        0.0655
     93 H          13.8678    2.4750    0.0000 H       1  UNL1        0.2923
     94 H          13.8678    5.7150    0.0000 H       1  UNL1        0.2923
@<TRIPOS>BOND
     1     1    22    1
     2     1    29    1
     3    27     2    1
     4     2    31    1
     5     3    27    1
     6     3    32    1
     7    23     4    1
     8     4    75    1
     9    29     5    1
    10     5    40    1
    11    24     6    1
    12     6    76    1
    13     7    36    1
    14     7    37    1
    15    25     8    1
    16     8    77    1
    17    26     9    1
    18     9    78    1
    19    28    10    1
    20    10    79    1
    21    30    11    1
    22    11    82    1
    23    37    12    1
    24    12    41    1
    25    33    13    1
    26    13    83    1
    27    34    14    1
    28    14    84    1
    29    35    15    1
    30    15    85    1
    31    16    39    1
    32    16    88    1
    33    17    42   ar
    34    17    45   ar
    35    18    43    2
    36    19    48    1
    37    19    91    1
    38    20    52    1
    39    20    93    1
    40    21    54    1
    41    21    94    1
    42    22    23    1
    43    22    31    1
    44    22    55    1
    45    23    24    1
    46    23    56    1
    47    24    25    1
    48    24    57    1
    49    25    29    1
    50    25    58    1
    51    26    27    1
    52    26    28    1
    53    26    59    1
    54    27    60    1
    55    28    30    1
    56    28    61    1
    57    29    62    1
    58    30    32    1
    59    30    63    1
    60    31    64    1
    61    31    65    1
    62    32    38    1
    63    32    66    1
    64    33    34    1
    65    33    35    1
    66    33    67    1
    67    34    36    1
    68    34    68    1
    69    35    37    1
    70    35    69    1
    71    36    39    1
    72    36    70    1
    73    37    71    1
    74    38    72    1
    75    38    73    1
    76    38    74    1
    77    39    80    1
    78    39    81    1
    79    40    42   ar
    80    40    43   ar
    81    41    46   ar
    82    41    47   ar
    83    42    49    1
    84    43    44   ar
    85    44    45   ar
    86    44    48   ar
    87    45    46   ar
    88    46    86    1
    89    47    48   ar
    90    47    87    1
    91    49    50   ar
    92    49    51   ar
    93    50    52   ar
    94    50    89    1
    95    51    53   ar
    96    51    90    1
    97    52    54   ar
    98    53    54   ar
    99    53    92    1
