@<TRIPOS>MOLECULE
IMPHY016417
 26 26 0 0 0
SMALL
GASTEIGER

@<TRIPOS>ATOM
      1 O           4.5981    1.7500    0.0000 O.3     1  UNL1       -0.4914
      2 O           2.8660    0.7500    0.0000 O.3     1  UNL1       -0.4915
      3 C           5.4641   -0.7500    0.0000 C.ar    1  UNL1       -0.0439
      4 C           6.3301   -1.2500    0.0000 C.3     1  UNL1       -0.0304
      5 C           5.4641    0.2500    0.0000 C.ar    1  UNL1       -0.0131
      6 C           4.5981    0.7500    0.0000 C.ar    1  UNL1        0.1617
      7 C           4.5981   -1.2500    0.0000 C.ar    1  UNL1       -0.0549
      8 C           3.7320    0.2500    0.0000 C.ar    1  UNL1        0.1615
      9 C           3.7320   -0.7500    0.0000 C.ar    1  UNL1       -0.0160
     10 C           6.3301   -2.2500    0.0000 C.3     1  UNL1       -0.0613
     11 C           5.4641    2.2500    0.0000 C.3     1  UNL1        0.0790
     12 C           2.0000    0.2500    0.0000 C.3     1  UNL1        0.0790
     13 H           6.9407   -1.3577    0.0000 H       1  UNL1        0.0311
     14 H           6.5422   -0.6674    0.0000 H       1  UNL1        0.0311
     15 H           6.0010    0.5600    0.0000 H       1  UNL1        0.0658
     16 H           4.5981   -1.8700    0.0000 H       1  UNL1        0.0621
     17 H           3.1951   -1.0600    0.0000 H       1  UNL1        0.0655
     18 H           5.7101   -2.2500    0.0000 H       1  UNL1        0.0233
     19 H           6.3301   -2.8700    0.0000 H       1  UNL1        0.0233
     20 H           6.9501   -2.2500    0.0000 H       1  UNL1        0.0233
     21 H           5.7741    1.7131    0.0000 H       1  UNL1        0.0660
     22 H           6.0010    2.5600    0.0000 H       1  UNL1        0.0660
     23 H           5.1541    2.7869    0.0000 H       1  UNL1        0.0660
     24 H           1.6900    0.7869    0.0000 H       1  UNL1        0.0660
     25 H           1.4631   -0.0600    0.0000 H       1  UNL1        0.0660
     26 H           2.3100   -0.2869    0.0000 H       1  UNL1        0.0660
@<TRIPOS>BOND
     1     1     6    1
     2     1    11    1
     3     2     8    1
     4     2    12    1
     5     3     4    1
     6     3     5   ar
     7     3     7   ar
     8     4    10    1
     9     4    13    1
    10     4    14    1
    11     5     6   ar
    12     5    15    1
    13     6     8   ar
    14     7     9   ar
    15     7    16    1
    16     8     9   ar
    17     9    17    1
    18    10    18    1
    19    10    19    1
    20    10    20    1
    21    11    21    1
    22    11    22    1
    23    11    23    1
    24    12    24    1
    25    12    25    1
    26    12    26    1
