@<TRIPOS>MOLECULE
IMPHY005618
 39 39 0 0 0
SMALL
GASTEIGER

@<TRIPOS>ATOM
      1 C           5.4641   -0.6900    0.0000 C.3     1  UNL1       -0.0275
      2 C           5.4641    0.3100    0.0000 C.2     1  UNL1       -0.0668
      3 C           4.5981   -1.1900    0.0000 C.3     1  UNL1       -0.0283
      4 C           4.5981    0.8100    0.0000 C.3     1  UNL1       -0.0130
      5 C           3.7320   -0.6900    0.0000 C.2     1  UNL1       -0.0762
      6 C           2.0000    0.3100    0.0000 C.3     1  UNL1       -0.0286
      7 C           2.0000   -0.6900    0.0000 C.3     1  UNL1       -0.0308
      8 C           2.8660    0.8100    0.0000 C.2     1  UNL1       -0.0759
      9 C           6.3301    0.8100    0.0000 C.2     1  UNL1       -0.0762
     10 C           3.7320    0.3100    0.0000 C.2     1  UNL1       -0.0810
     11 C           2.8660   -1.1900    0.0000 C.2     1  UNL1       -0.0847
     12 C           3.4629    0.8365    0.0000 C.3     1  UNL1       -0.0438
     13 C           2.8660    1.8100    0.0000 C.3     1  UNL1       -0.0438
     14 C           7.1962    0.3100    0.0000 C.3     1  UNL1       -0.0438
     15 C           6.3301    1.8100    0.0000 C.3     1  UNL1       -0.0438
     16 H           5.6762   -1.2726    0.0000 H       1  UNL1        0.0313
     17 H           6.0747   -0.5823    0.0000 H       1  UNL1        0.0313
     18 H           4.1996   -1.6650    0.0000 H       1  UNL1        0.0313
     19 H           4.9966   -1.6650    0.0000 H       1  UNL1        0.0313
     20 H           4.9966    1.2850    0.0000 H       1  UNL1        0.0352
     21 H           4.1996    1.2850    0.0000 H       1  UNL1        0.0352
     22 H           1.7880    0.8926    0.0000 H       1  UNL1        0.0313
     23 H           1.3894    0.2023    0.0000 H       1  UNL1        0.0313
     24 H           1.3894   -0.5823    0.0000 H       1  UNL1        0.0310
     25 H           1.7880   -1.2726    0.0000 H       1  UNL1        0.0310
     26 H           4.1307   -0.1649    0.0000 H       1  UNL1        0.0575
     27 H           2.8660   -1.8100    0.0000 H       1  UNL1        0.0572
     28 H           4.0735    0.9441    0.0000 H       1  UNL1        0.0274
     29 H           3.3552    1.4470    0.0000 H       1  UNL1        0.0274
     30 H           2.8523    0.7288    0.0000 H       1  UNL1        0.0274
     31 H           3.4860    1.8100    0.0000 H       1  UNL1        0.0274
     32 H           2.8660    2.4300    0.0000 H       1  UNL1        0.0274
     33 H           2.2460    1.8100    0.0000 H       1  UNL1        0.0274
     34 H           6.8862   -0.2269    0.0000 H       1  UNL1        0.0274
     35 H           7.7331    0.0000    0.0000 H       1  UNL1        0.0274
     36 H           7.5062    0.8469    0.0000 H       1  UNL1        0.0274
     37 H           6.9501    1.8100    0.0000 H       1  UNL1        0.0274
     38 H           6.3301    2.4300    0.0000 H       1  UNL1        0.0274
     39 H           5.7101    1.8100    0.0000 H       1  UNL1        0.0274
@<TRIPOS>BOND
     1     1     2    1
     2     1     3    1
     3     1    16    1
     4     1    17    1
     5     2     4    1
     6     2     9    2
     7     3     5    1
     8     3    18    1
     9     3    19    1
    10     4    10    1
    11     4    20    1
    12     4    21    1
    13     5    11    2
    14     5    12    1
    15     6     7    1
    16     6     8    1
    17     6    22    1
    18     6    23    1
    19     7    11    1
    20     7    24    1
    21     7    25    1
    22     8    10    2
    23     8    13    1
    24     9    14    1
    25     9    15    1
    26    10    26    1
    27    11    27    1
    28    12    28    1
    29    12    29    1
    30    12    30    1
    31    13    31    1
    32    13    32    1
    33    13    33    1
    34    14    34    1
    35    14    35    1
    36    14    36    1
    37    15    37    1
    38    15    38    1
    39    15    39    1
