@<TRIPOS>MOLECULE
IMPHY017201
 24 24 0 0 0
SMALL
GASTEIGER

@<TRIPOS>ATOM
      1 S           2.8090    0.3784    0.0000 S.2     1  UNL1       -0.1016
      2 C           4.7770   -0.3210    0.0000 C.3     1  UNL1       -0.0486
      3 C           5.7281   -0.6300    0.0000 C.3     1  UNL1       -0.0530
      4 C           4.5691    0.6571    0.0000 C.3     1  UNL1       -0.0214
      5 C           5.9360   -1.6082    0.0000 C.3     1  UNL1       -0.0559
      6 C           3.6180    0.9661    0.0000 C.ar    1  UNL1       -0.0102
      7 C           6.8870   -1.9172    0.0000 C.3     1  UNL1       -0.0653
      8 C           3.3090    1.9172    0.0000 C.ar    1  UNL1       -0.0515
      9 C           2.3090    1.9172    0.0000 C.ar    1  UNL1       -0.0545
     10 C           2.0000    0.9661    0.0000 C.ar    1  UNL1       -0.0241
     11 H           4.1574   -0.3427    0.0000 H       1  UNL1        0.0269
     12 H           4.6907   -0.9350    0.0000 H       1  UNL1        0.0269
     13 H           6.3477   -0.6084    0.0000 H       1  UNL1        0.0265
     14 H           5.8144   -0.0161    0.0000 H       1  UNL1        0.0265
     15 H           5.1887    0.6788    0.0000 H       1  UNL1        0.0318
     16 H           4.6554    1.2711    0.0000 H       1  UNL1        0.0318
     17 H           5.3164   -1.6298    0.0000 H       1  UNL1        0.0263
     18 H           5.8497   -2.2222    0.0000 H       1  UNL1        0.0263
     19 H           6.6954   -2.5069    0.0000 H       1  UNL1        0.0230
     20 H           7.4767   -2.1088    0.0000 H       1  UNL1        0.0230
     21 H           7.0786   -1.3276    0.0000 H       1  UNL1        0.0230
     22 H           3.6734    2.4188    0.0000 H       1  UNL1        0.0626
     23 H           1.9446    2.4188    0.0000 H       1  UNL1        0.0623
     24 H           1.4103    0.7746    0.0000 H       1  UNL1        0.0693
@<TRIPOS>BOND
     1     1     6   ar
     2     1    10   ar
     3     2     3    1
     4     2     4    1
     5     2    11    1
     6     2    12    1
     7     3     5    1
     8     3    13    1
     9     3    14    1
    10     4     6    1
    11     4    15    1
    12     4    16    1
    13     5     7    1
    14     5    17    1
    15     5    18    1
    16     6     8   ar
    17     7    19    1
    18     7    20    1
    19     7    21    1
    20     8     9   ar
    21     8    22    1
    22     9    10   ar
    23     9    23    1
    24    10    24    1
