@<TRIPOS>MOLECULE
IMPHY004699
 33 36 0 0 0
SMALL
GASTEIGER

@<TRIPOS>ATOM
      1 O           8.8783    0.6223    0.0000 O.3     1  UNL1       -0.4807
      2 O           5.9668   -1.0116    0.0000 O.3     1  UNL1       -0.4807
      3 O           6.2100    2.6686    0.0000 O.3     1  UNL1       -0.3837
      4 O           7.8222   -2.5921    0.0000 O.3     1  UNL1       -0.5061
      5 O          11.3206   -2.0518    0.0000 O.3     1  UNL1       -0.5065
      6 O           2.4324   -0.2220    0.0000 O.3     1  UNL1       -0.5066
      7 C           6.7100    1.8026    0.0000 C.3     1  UNL1        0.1373
      8 C           7.1878   -0.1460    0.0000 C.3     1  UNL1        0.1614
      9 C           7.4467    0.8200    0.0000 C.3     1  UNL1        0.1580
     10 C           8.4595   -0.9406    0.0000 C.ar    1  UNL1        0.0785
     11 C           5.4134    0.5088    0.0000 C.ar    1  UNL1        0.0372
     12 C           9.2367   -0.3113    0.0000 C.ar    1  UNL1        0.1352
     13 C           5.1378   -0.4524    0.0000 C.ar    1  UNL1        0.1317
     14 C           8.6066   -1.9718    0.0000 C.ar    1  UNL1        0.1306
     15 C           4.7015    1.2692    0.0000 C.ar    1  UNL1       -0.0480
     16 C          10.2148   -0.6695    0.0000 C.ar    1  UNL1        0.0222
     17 C           4.1311   -0.7200    0.0000 C.ar    1  UNL1        0.0220
     18 C           9.5761   -2.3526    0.0000 C.ar    1  UNL1        0.0219
     19 C          10.3856   -1.6970    0.0000 C.ar    1  UNL1        0.1238
     20 C           3.6889    1.0250    0.0000 C.ar    1  UNL1       -0.0196
     21 C           3.4018    0.0237    0.0000 C.ar    1  UNL1        0.1204
     22 H           7.2275    2.1441    0.0000 H       1  UNL1        0.0675
     23 H           6.9678   -0.9670    0.0000 H       1  UNL1        0.0815
     24 H           7.6666    1.6410    0.0000 H       1  UNL1        0.0813
     25 H           4.8792    1.8632    0.0000 H       1  UNL1        0.0624
     26 H           6.5200    3.2055    0.0000 H       1  UNL1        0.2101
     27 H          10.6920   -0.2738    0.0000 H       1  UNL1        0.0691
     28 H           3.9671   -1.3179    0.0000 H       1  UNL1        0.0691
     29 H           9.6708   -2.9653    0.0000 H       1  UNL1        0.0691
     30 H           3.2599    1.4726    0.0000 H       1  UNL1        0.0654
     31 H           7.9121   -3.2055    0.0000 H       1  UNL1        0.2922
     32 H          11.8009   -1.6598    0.0000 H       1  UNL1        0.2921
     33 H           2.0000    0.2224    0.0000 H       1  UNL1        0.2921
@<TRIPOS>BOND
     1     1     9    1
     2     1    12    1
     3     2     8    1
     4     2    13    1
     5     3     7    1
     6     3    26    1
     7     4    14    1
     8     4    31    1
     9     5    19    1
    10     5    32    1
    11     6    21    1
    12     6    33    1
    13     7     8    1
    14     7     9    1
    15     7    22    1
    16     8    10    1
    17     8    23    1
    18     9    11    1
    19     9    24    1
    20    10    12   ar
    21    10    14   ar
    22    11    13   ar
    23    11    15   ar
    24    12    16   ar
    25    13    17   ar
    26    14    18   ar
    27    15    20   ar
    28    15    25    1
    29    16    19   ar
    30    16    27    1
    31    17    21   ar
    32    17    28    1
    33    18    19   ar
    34    18    29    1
    35    20    21   ar
    36    20    30    1
