@<TRIPOS>MOLECULE
IMPHY014496
 39 43 0 0 0
SMALL
GASTEIGER

@<TRIPOS>ATOM
      1 O           9.0431   -2.9340    0.0000 O.3     1  UNL1       -0.4526
      2 O          10.4950   -2.0958    0.0000 O.3     1  UNL1       -0.4526
      3 O           6.1948    2.6821    0.0000 O.2     1  UNL1       -0.2698
      4 O           4.3576    2.7252    0.0000 O.3     1  UNL1       -0.5028
      5 O           2.5381    1.6933    0.0000 O.3     1  UNL1       -0.5033
      6 N           7.0772    1.1475    0.0000 N.am    1  UNL1       -0.2897
      7 C           7.0772    0.1475    0.0000 C.3     1  UNL1        0.0558
      8 C           7.9432   -0.3525    0.0000 C.ar    1  UNL1       -0.0198
      9 C           6.1832   -0.3872    0.0000 C.3     1  UNL1       -0.0040
     10 C           7.9432    1.6475    0.0000 C.3     1  UNL1        0.0196
     11 C           8.8092    1.1475    0.0000 C.3     1  UNL1       -0.0114
     12 C           8.8092    0.1475    0.0000 C.ar    1  UNL1       -0.0372
     13 C           5.2772    0.1267    0.0000 C.ar    1  UNL1       -0.0294
     14 C           6.1832    1.6822    0.0000 C.2     1  UNL1        0.2510
     15 C           5.2772    1.1683    0.0000 C.ar    1  UNL1        0.0851
     16 C           7.9271   -1.3940    0.0000 C.ar    1  UNL1       -0.0109
     17 C           9.7192   -0.3593    0.0000 C.ar    1  UNL1       -0.0126
     18 C           8.8252   -1.9218    0.0000 C.ar    1  UNL1        0.1666
     19 C           9.7272   -1.4009    0.0000 C.ar    1  UNL1        0.1665
     20 C           4.3460   -0.4302    0.0000 C.ar    1  UNL1       -0.0541
     21 C           4.3460    1.7252    0.0000 C.ar    1  UNL1        0.1708
     22 C           3.4022    0.1050    0.0000 C.ar    1  UNL1       -0.0162
     23 C           3.4022    1.1900    0.0000 C.ar    1  UNL1        0.1590
     24 C          10.0730   -3.0414    0.0000 C.3     1  UNL1        0.2332
     25 H           7.0820   -0.4725    0.0000 H       1  UNL1        0.0554
     26 H           5.7896   -0.8662    0.0000 H       1  UNL1        0.0335
     27 H           6.5878   -0.8569    0.0000 H       1  UNL1        0.0335
     28 H           8.3417    2.1225    0.0000 H       1  UNL1        0.0468
     29 H           7.5447    2.1225    0.0000 H       1  UNL1        0.0468
     30 H           9.4198    1.0398    0.0000 H       1  UNL1        0.0328
     31 H           9.0213    1.7301    0.0000 H       1  UNL1        0.0328
     32 H           7.3866   -1.6978    0.0000 H       1  UNL1        0.0659
     33 H          10.2525   -0.0431    0.0000 H       1  UNL1        0.0658
     34 H           4.3532   -1.0502    0.0000 H       1  UNL1        0.0622
     35 H           2.8665   -0.2071    0.0000 H       1  UNL1        0.0655
     36 H           9.9442   -3.6479    0.0000 H       1  UNL1        0.1166
     37 H          10.6626   -3.2331    0.0000 H       1  UNL1        0.1166
     38 H           3.8242    3.0414    0.0000 H       1  UNL1        0.2923
     39 H           2.0000    1.3854    0.0000 H       1  UNL1        0.2923
@<TRIPOS>BOND
     1     1    18    1
     2     1    24    1
     3     2    19    1
     4     2    24    1
     5     3    14    2
     6     4    21    1
     7     4    38    1
     8     5    23    1
     9     5    39    1
    10     6     7    1
    11     6    10    1
    12     6    14   am
    13     7     8    1
    14     7     9    1
    15     7    25    1
    16     8    12   ar
    17     8    16   ar
    18     9    13    1
    19     9    26    1
    20     9    27    1
    21    10    11    1
    22    10    28    1
    23    10    29    1
    24    11    12    1
    25    11    30    1
    26    11    31    1
    27    12    17   ar
    28    13    15   ar
    29    13    20   ar
    30    14    15    1
    31    15    21   ar
    32    16    18   ar
    33    16    32    1
    34    17    19   ar
    35    17    33    1
    36    18    19   ar
    37    20    22   ar
    38    20    34    1
    39    21    23   ar
    40    22    23   ar
    41    22    35    1
    42    24    36    1
    43    24    37    1
