@<TRIPOS>MOLECULE
IMPHY015766
 30 29 0 0 0
SMALL
GASTEIGER

@<TRIPOS>ATOM
      1 O           8.9282    0.7500    0.0000 O.3     1  UNL1       -0.3950
      2 C           3.7320    0.7500    0.0000 C.3     1  UNL1       -0.0507
      3 C           4.5981    0.2500    0.0000 C.3     1  UNL1       -0.0528
      4 C           2.8660    0.2500    0.0000 C.3     1  UNL1       -0.0467
      5 C           5.4641    0.7500    0.0000 C.3     1  UNL1       -0.0530
      6 C           6.3301    0.2500    0.0000 C.3     1  UNL1       -0.0510
      7 C           7.1962    0.7500    0.0000 C.3     1  UNL1       -0.0297
      8 C           2.0000    0.7500    0.0000 C.3     1  UNL1       -0.0627
      9 C           2.8660   -0.7500    0.0000 C.3     1  UNL1       -0.0627
     10 C           8.0622    0.2500    0.0000 C.3     1  UNL1        0.0442
     11 H           4.1306    1.2250    0.0000 H       1  UNL1        0.0268
     12 H           3.3335    1.2250    0.0000 H       1  UNL1        0.0268
     13 H           4.1996   -0.2249    0.0000 H       1  UNL1        0.0265
     14 H           4.9966   -0.2249    0.0000 H       1  UNL1        0.0265
     15 H           2.8660    0.8700    0.0000 H       1  UNL1        0.0295
     16 H           5.8626    1.2250    0.0000 H       1  UNL1        0.0265
     17 H           5.0656    1.2250    0.0000 H       1  UNL1        0.0265
     18 H           5.9316   -0.2249    0.0000 H       1  UNL1        0.0266
     19 H           6.7287   -0.2249    0.0000 H       1  UNL1        0.0266
     20 H           7.5947    1.2250    0.0000 H       1  UNL1        0.0287
     21 H           6.7976    1.2250    0.0000 H       1  UNL1        0.0287
     22 H           2.3100    1.2869    0.0000 H       1  UNL1        0.0232
     23 H           1.4631    1.0600    0.0000 H       1  UNL1        0.0232
     24 H           1.6900    0.2131    0.0000 H       1  UNL1        0.0232
     25 H           2.2460   -0.7500    0.0000 H       1  UNL1        0.0232
     26 H           2.8660   -1.3700    0.0000 H       1  UNL1        0.0232
     27 H           3.4860   -0.7500    0.0000 H       1  UNL1        0.0232
     28 H           7.6636   -0.2249    0.0000 H       1  UNL1        0.0557
     29 H           8.4607   -0.2249    0.0000 H       1  UNL1        0.0557
     30 H           9.4651    0.4400    0.0000 H       1  UNL1        0.2094
@<TRIPOS>BOND
     1     1    10    1
     2     1    30    1
     3     2     3    1
     4     2     4    1
     5     2    11    1
     6     2    12    1
     7     3     5    1
     8     3    13    1
     9     3    14    1
    10     4     8    1
    11     4     9    1
    12     4    15    1
    13     5     6    1
    14     5    16    1
    15     5    17    1
    16     6     7    1
    17     6    18    1
    18     6    19    1
    19     7    10    1
    20     7    20    1
    21     7    21    1
    22     8    22    1
    23     8    23    1
    24     8    24    1
    25     9    25    1
    26     9    26    1
    27     9    27    1
    28    10    28    1
    29    10    29    1
