@<TRIPOS>MOLECULE
IMPHY005953
 42 41 0 0 0
SMALL
GASTEIGER

@<TRIPOS>ATOM
      1 O           3.7320    1.1900    0.0000 O.3     1  UNL1       -0.4648
      2 O           2.8660   -0.3100    0.0000 O.2     1  UNL1       -0.2512
      3 C           7.1962    1.1900    0.0000 C.3     1  UNL1       -0.0529
      4 C           8.0622    0.6900    0.0000 C.3     1  UNL1       -0.0528
      5 C           6.3301    0.6900    0.0000 C.3     1  UNL1       -0.0500
      6 C           8.9282    1.1900    0.0000 C.3     1  UNL1       -0.0496
      7 C           5.4641    1.1900    0.0000 C.3     1  UNL1       -0.0185
      8 C           9.7942    0.6900    0.0000 C.3     1  UNL1       -0.0348
      9 C           4.5981    0.6900    0.0000 C.3     1  UNL1        0.0924
     10 C          10.6603    1.1900    0.0000 C.2     1  UNL1       -0.0879
     11 C          11.5263    0.6900    0.0000 C.2     1  UNL1       -0.0879
     12 C          11.5263   -0.3100    0.0000 C.3     1  UNL1       -0.0350
     13 C          12.3923   -0.8100    0.0000 C.3     1  UNL1       -0.0525
     14 C          12.3923   -1.8100    0.0000 C.3     1  UNL1       -0.0650
     15 C           2.8660    0.6900    0.0000 C.2     1  UNL1        0.3039
     16 C           2.0000    1.1900    0.0000 C.3     1  UNL1        0.0332
     17 H           7.5947    1.6650    0.0000 H       1  UNL1        0.0265
     18 H           6.7976    1.6650    0.0000 H       1  UNL1        0.0265
     19 H           7.6636    0.2151    0.0000 H       1  UNL1        0.0265
     20 H           8.4607    0.2151    0.0000 H       1  UNL1        0.0265
     21 H           5.9316    0.2151    0.0000 H       1  UNL1        0.0266
     22 H           6.7287    0.2151    0.0000 H       1  UNL1        0.0266
     23 H           9.3267    1.6650    0.0000 H       1  UNL1        0.0268
     24 H           8.5297    1.6650    0.0000 H       1  UNL1        0.0268
     25 H           5.8626    1.6650    0.0000 H       1  UNL1        0.0298
     26 H           5.0656    1.6650    0.0000 H       1  UNL1        0.0298
     27 H           9.3957    0.2151    0.0000 H       1  UNL1        0.0307
     28 H          10.1928    0.2151    0.0000 H       1  UNL1        0.0307
     29 H           4.1996    0.2151    0.0000 H       1  UNL1        0.0697
     30 H           4.9966    0.2151    0.0000 H       1  UNL1        0.0697
     31 H          10.6603    1.8100    0.0000 H       1  UNL1        0.0569
     32 H          12.0632    1.0000    0.0000 H       1  UNL1        0.0569
     33 H          10.9157   -0.2023    0.0000 H       1  UNL1        0.0307
     34 H          11.3142   -0.8926    0.0000 H       1  UNL1        0.0307
     35 H          13.0029   -0.9177    0.0000 H       1  UNL1        0.0266
     36 H          12.6044   -0.2274    0.0000 H       1  UNL1        0.0266
     37 H          11.7723   -1.8100    0.0000 H       1  UNL1        0.0230
     38 H          12.3923   -2.4300    0.0000 H       1  UNL1        0.0230
     39 H          13.0123   -1.8100    0.0000 H       1  UNL1        0.0230
     40 H           2.3100    1.7269    0.0000 H       1  UNL1        0.0342
     41 H           1.4631    1.5000    0.0000 H       1  UNL1        0.0342
     42 H           1.6900    0.6531    0.0000 H       1  UNL1        0.0342
@<TRIPOS>BOND
     1     1     9    1
     2     1    15    1
     3     2    15    2
     4     3     4    1
     5     3     5    1
     6     3    17    1
     7     3    18    1
     8     4     6    1
     9     4    19    1
    10     4    20    1
    11     5     7    1
    12     5    21    1
    13     5    22    1
    14     6     8    1
    15     6    23    1
    16     6    24    1
    17     7     9    1
    18     7    25    1
    19     7    26    1
    20     8    10    1
    21     8    27    1
    22     8    28    1
    23     9    29    1
    24     9    30    1
    25    10    11    2
    26    10    31    1
    27    11    12    1
    28    11    32    1
    29    12    13    1
    30    12    33    1
    31    12    34    1
    32    13    14    1
    33    13    35    1
    34    13    36    1
    35    14    37    1
    36    14    38    1
    37    14    39    1
    38    15    16    1
    39    16    40    1
    40    16    41    1
    41    16    42    1
