@<TRIPOS>MOLECULE
IMPHY002496
 122 128 0 0 0
SMALL
GASTEIGER

@<TRIPOS>ATOM
      1 O           5.1247   -0.3945    0.0000 O.3     1  UNL1       -0.3912
      2 O           6.8671   -4.4673    0.0000 O.3     1  UNL1       -0.3449
      3 O           8.6575    3.6364    0.0000 O.3     1  UNL1       -0.3451
      4 O           5.1350   -4.4673    0.0000 O.3     1  UNL1       -0.3405
      5 O          10.1474    2.7531    0.0000 O.3     1  UNL1       -0.3461
      6 O           6.8671   -6.4673    0.0000 O.3     1  UNL1       -0.3841
      7 O           9.6775    5.3568    0.0000 O.3     1  UNL1       -0.3841
      8 O           5.1350   -7.4673    0.0000 O.3     1  UNL1       -0.3864
      9 O          11.6773    5.3337    0.0000 O.3     1  UNL1       -0.3864
     10 O           7.4222    6.2734    0.0000 O.2     1  UNL1       -0.2971
     11 O           3.4030   -6.4673    0.0000 O.3     1  UNL1       -0.3865
     12 O          12.6572    3.5902    0.0000 O.3     1  UNL1       -0.3869
     13 O           2.5369   -4.9673    0.0000 O.3     1  UNL1       -0.3924
     14 C           6.8948   -0.3982    0.0000 C.3     1  UNL1        0.0065
     15 C           6.8910   -1.3982    0.0000 C.3     1  UNL1       -0.0169
     16 C           6.0264   -0.8948    0.0000 C.3     1  UNL1       -0.0377
     17 C           7.7628    0.0985    0.0000 C.3     1  UNL1       -0.0265
     18 C           7.7551   -1.9015    0.0000 C.3     1  UNL1       -0.0272
     19 C           7.7829    1.1399    0.0000 C.3     1  UNL1       -0.0205
     20 C           5.9868    0.1122    0.0000 C.3     1  UNL1        0.0622
     21 C           6.8869    1.6711    0.0000 C.3     1  UNL1       -0.0186
     22 C           5.9790   -1.9015    0.0000 C.3     1  UNL1       -0.0441
     23 C           8.6269   -0.4048    0.0000 C.3     1  UNL1       -0.0488
     24 C           5.9828    1.1538    0.0000 C.3     1  UNL1       -0.0200
     25 C           8.6230   -1.4048    0.0000 C.3     1  UNL1       -0.0488
     26 C           7.7671   -2.9430    0.0000 C.3     1  UNL1       -0.0052
     27 C           7.1165    2.6808    0.0000 C.3     1  UNL1       -0.0060
     28 C           8.5586    1.8259    0.0000 C.3     1  UNL1       -0.0200
     29 C           5.9670   -2.9430    0.0000 C.3     1  UNL1       -0.0255
     30 C           6.8671   -3.4673    0.0000 C.3     1  UNL1        0.0672
     31 C           8.1475    2.7763    0.0000 C.3     1  UNL1        0.0659
     32 C           8.6430    0.6299    0.0000 C.3     1  UNL1       -0.0587
     33 C           6.0267    2.1811    0.0000 C.3     1  UNL1       -0.0586
     34 C           6.4573    3.4328    0.0000 C.3     1  UNL1       -0.0378
     35 C           8.7671   -2.9354    0.0000 C.3     1  UNL1       -0.0572
     36 C           8.2738   -3.8052    0.0000 C.3     1  UNL1       -0.0572
     37 C           6.7789    4.3797    0.0000 C.3     1  UNL1       -0.0434
     38 C           5.4765    3.2379    0.0000 C.3     1  UNL1       -0.0621
     39 C           6.0010   -4.9673    0.0000 C.3     1  UNL1        0.1882
     40 C           9.6574    3.6249    0.0000 C.3     1  UNL1        0.1878
     41 C           6.1197    5.1316    0.0000 C.3     1  UNL1        0.0063
     42 C           6.0010   -5.9673    0.0000 C.3     1  UNL1        0.1341
     43 C          10.1674    4.4851    0.0000 C.3     1  UNL1        0.1341
     44 C           6.4414    6.0785    0.0000 C.2     1  UNL1        0.1359
     45 C           5.1350   -6.4673    0.0000 C.3     1  UNL1        0.1141
     46 C          11.1674    4.4735    0.0000 C.3     1  UNL1        0.1137
     47 C           4.2690   -4.9673    0.0000 C.3     1  UNL1        0.1130
     48 C          11.1473    2.7416    0.0000 C.3     1  UNL1        0.0792
     49 C           4.2690   -5.9673    0.0000 C.3     1  UNL1        0.1119
     50 C          11.6573    3.6018    0.0000 C.3     1  UNL1        0.1069
     51 C           5.7822    6.8305    0.0000 C.3     1  UNL1        0.0119
     52 C           3.4030   -4.4673    0.0000 C.3     1  UNL1        0.0730
     53 C           6.1038    7.7773    0.0000 C.3     1  UNL1       -0.0560
     54 C           4.8013    6.6356    0.0000 C.3     1  UNL1       -0.0560
     55 H           5.6297   -0.4183    0.0000 H       1  UNL1        0.0277
     56 H           5.6261   -1.3683    0.0000 H       1  UNL1        0.0277
     57 H           8.5038    0.5150    0.0000 H       1  UNL1        0.0313
     58 H           8.4928   -2.3237    0.0000 H       1  UNL1        0.0312
     59 H           5.4481    0.4191    0.0000 H       1  UNL1        0.0599
     60 H           5.7768   -1.3154    0.0000 H       1  UNL1        0.0272
     61 H           5.3670   -2.0005    0.0000 H       1  UNL1        0.0272
     62 H           9.2370   -0.5149    0.0000 H       1  UNL1        0.0268
     63 H           8.8412    0.1769    0.0000 H       1  UNL1        0.0268
     64 H           5.7715    1.7367    0.0000 H       1  UNL1        0.0296
     65 H           5.3724    1.0454    0.0000 H       1  UNL1        0.0296
     66 H           8.8328   -1.9883    0.0000 H       1  UNL1        0.0268
     67 H           9.2340   -1.2995    0.0000 H       1  UNL1        0.0268
     68 H           7.4313    3.4704    0.0000 H       1  UNL1        0.0334
     69 H           8.9182    1.3208    0.0000 H       1  UNL1        0.0296
     70 H           9.0986    2.1304    0.0000 H       1  UNL1        0.0296
     71 H           5.3574   -2.8299    0.0000 H       1  UNL1        0.0290
     72 H           5.7512   -3.5243    0.0000 H       1  UNL1        0.0290
     73 H           7.4046   -3.7763    0.0000 H       1  UNL1        0.0602
     74 H           8.7663    2.7369    0.0000 H       1  UNL1        0.0600
     75 H           8.3269    0.0966    0.0000 H       1  UNL1        0.0235
     76 H           9.1764    0.3138    0.0000 H       1  UNL1        0.0235
     77 H           8.9592    1.1633    0.0000 H       1  UNL1        0.0235
     78 H           6.3429    2.7144    0.0000 H       1  UNL1        0.0235
     79 H           5.4934    2.4973    0.0000 H       1  UNL1        0.0235
     80 H           5.7105    1.6478    0.0000 H       1  UNL1        0.0235
     81 H           6.2579    2.8457    0.0000 H       1  UNL1        0.0302
     82 H           4.5854   -0.0886    0.0000 H       1  UNL1        0.2098
     83 H           8.7719   -3.5553    0.0000 H       1  UNL1        0.0236
     84 H           9.3871   -2.9306    0.0000 H       1  UNL1        0.0236
     85 H           8.7623   -2.3154    0.0000 H       1  UNL1        0.0236
     86 H           7.7393   -4.1193    0.0000 H       1  UNL1        0.0236
     87 H           8.5879   -4.3397    0.0000 H       1  UNL1        0.0236
     88 H           8.8083   -3.4911    0.0000 H       1  UNL1        0.0236
     89 H           7.3224    4.0813    0.0000 H       1  UNL1        0.0272
     90 H           7.1671    4.8631    0.0000 H       1  UNL1        0.0272
     91 H           5.3556    3.8460    0.0000 H       1  UNL1        0.0233
     92 H           4.8683    3.1171    0.0000 H       1  UNL1        0.0233
     93 H           5.5973    2.6298    0.0000 H       1  UNL1        0.0233
     94 H           6.0010   -4.3473    0.0000 H       1  UNL1        0.0937
     95 H           9.3413    3.0916    0.0000 H       1  UNL1        0.0937
     96 H           5.5762    5.4300    0.0000 H       1  UNL1        0.0342
     97 H           5.7316    4.6482    0.0000 H       1  UNL1        0.0342
     98 H           6.5380   -5.6573    0.0000 H       1  UNL1        0.0671
     99 H           9.5475    4.4922    0.0000 H       1  UNL1        0.0671
    100 H           5.6720   -6.7773    0.0000 H       1  UNL1        0.0648
    101 H          10.8636    5.0140    0.0000 H       1  UNL1        0.0647
    102 H           4.2690   -4.3473    0.0000 H       1  UNL1        0.0647
    103 H          11.0326    2.1323    0.0000 H       1  UNL1        0.0587
    104 H          11.7274    2.5228    0.0000 H       1  UNL1        0.0587
    105 H           3.7320   -5.6573    0.0000 H       1  UNL1        0.0647
    106 H          11.9611    3.0613    0.0000 H       1  UNL1        0.0643
    107 H           6.8671   -7.0873    0.0000 H       1  UNL1        0.2101
    108 H           9.9937    5.8901    0.0000 H       1  UNL1        0.2101
    109 H           5.3735    7.2967    0.0000 H       1  UNL1        0.0372
    110 H           3.8015   -3.9924    0.0000 H       1  UNL1        0.0584
    111 H           3.0044   -3.9924    0.0000 H       1  UNL1        0.0584
    112 H           4.5981   -7.7773    0.0000 H       1  UNL1        0.2100
    113 H          12.2973    5.3265    0.0000 H       1  UNL1        0.2100
    114 H           3.4030   -7.0873    0.0000 H       1  UNL1        0.2100
    115 H           4.6805    7.2437    0.0000 H       1  UNL1        0.0236
    116 H           4.1932    6.5148    0.0000 H       1  UNL1        0.0236
    117 H           6.6908    7.5779    0.0000 H       1  UNL1        0.0236
    118 H           4.9222    6.0275    0.0000 H       1  UNL1        0.0236
    119 H           6.3032    8.3644    0.0000 H       1  UNL1        0.0236
    120 H           5.5167    7.9768    0.0000 H       1  UNL1        0.0236
    121 H          12.9610    3.0497    0.0000 H       1  UNL1        0.2100
    122 H           2.0000   -4.6573    0.0000 H       1  UNL1        0.2095
@<TRIPOS>BOND
     1    20     1    1
     2     1    82    1
     3    30     2    1
     4    39     2    1
     5    31     3    1
     6    40     3    1
     7     4    39    1
     8     4    47    1
     9     5    40    1
    10     5    48    1
    11    42     6    1
    12     6   107    1
    13    43     7    1
    14     7   108    1
    15    45     8    1
    16     8   112    1
    17    46     9    1
    18     9   113    1
    19    10    44    2
    20    49    11    1
    21    11   114    1
    22    50    12    1
    23    12   121    1
    24    13    52    1
    25    13   122    1
    26    14    15    1
    27    14    16    1
    28    14    17    1
    29    14    20    1
    30    15    16    1
    31    15    18    1
    32    15    22    1
    33    16    55    1
    34    16    56    1
    35    17    19    1
    36    17    23    1
    37    17    57    1
    38    18    25    1
    39    18    26    1
    40    18    58    1
    41    19    21    1
    42    19    28    1
    43    19    32    1
    44    20    24    1
    45    20    59    1
    46    21    24    1
    47    21    27    1
    48    21    33    1
    49    22    29    1
    50    22    60    1
    51    22    61    1
    52    23    25    1
    53    23    62    1
    54    23    63    1
    55    24    64    1
    56    24    65    1
    57    25    66    1
    58    25    67    1
    59    26    30    1
    60    26    35    1
    61    26    36    1
    62    27    31    1
    63    27    34    1
    64    27    68    1
    65    28    31    1
    66    28    69    1
    67    28    70    1
    68    29    30    1
    69    29    71    1
    70    29    72    1
    71    30    73    1
    72    31    74    1
    73    32    75    1
    74    32    76    1
    75    32    77    1
    76    33    78    1
    77    33    79    1
    78    33    80    1
    79    34    37    1
    80    34    38    1
    81    34    81    1
    82    35    83    1
    83    35    84    1
    84    35    85    1
    85    36    86    1
    86    36    87    1
    87    36    88    1
    88    37    41    1
    89    37    89    1
    90    37    90    1
    91    38    91    1
    92    38    92    1
    93    38    93    1
    94    39    42    1
    95    39    94    1
    96    40    43    1
    97    40    95    1
    98    41    44    1
    99    41    96    1
   100    41    97    1
   101    42    45    1
   102    42    98    1
   103    43    46    1
   104    43    99    1
   105    44    51    1
   106    45    49    1
   107    45   100    1
   108    46    50    1
   109    46   101    1
   110    47    49    1
   111    47    52    1
   112    47   102    1
   113    48    50    1
   114    48   103    1
   115    48   104    1
   116    49   105    1
   117    50   106    1
   118    51    53    1
   119    51    54    1
   120    51   109    1
   121    52   110    1
   122    52   111    1
   123    53   117    1
   124    53   119    1
   125    53   120    1
   126    54   115    1
   127    54   116    1
   128    54   118    1
