@<TRIPOS>MOLECULE
IMPHY000201
 110 111 0 0 0
SMALL
GASTEIGER

@<TRIPOS>ATOM
      1 O          16.1466   -0.0256    0.0000 O.3     1  UNL1       -0.3683
      2 O          14.1786   -0.7250    0.0000 O.3     1  UNL1       -0.3892
      3 O          18.1146   -0.7250    0.0000 O.3     1  UNL1       -0.3892
      4 O          12.1571    2.2606    0.0000 O.3     1  UNL1       -0.3918
      5 O           5.3803    3.7010    0.0000 O.3     1  UNL1       -0.3915
      6 O           2.0000    3.7411    0.0000 O.3     1  UNL1       -0.4542
      7 O           2.0933    1.9615    0.0000 O.2     1  UNL1       -0.2453
      8 C          15.3376    0.5622    0.0000 C.3     1  UNL1        0.0850
      9 C          16.9556    0.5622    0.0000 C.3     1  UNL1        0.0850
     10 C          15.6466    1.5133    0.0000 C.3     1  UNL1       -0.0217
     11 C          16.6466    1.5133    0.0000 C.3     1  UNL1       -0.0217
     12 C          14.3865    0.2532    0.0000 C.3     1  UNL1        0.0814
     13 C          17.9066    0.2532    0.0000 C.3     1  UNL1        0.0816
     14 C          13.6434    0.9223    0.0000 C.3     1  UNL1       -0.0221
     15 C          18.6498    0.9223    0.0000 C.3     1  UNL1       -0.0210
     16 C          12.6923    0.6133    0.0000 C.3     1  UNL1       -0.0244
     17 C          11.9492    1.2824    0.0000 C.3     1  UNL1        0.0553
     18 C          19.6008    0.6133    0.0000 C.3     1  UNL1       -0.0323
     19 C          10.9981    0.9734    0.0000 C.3     1  UNL1       -0.0269
     20 C          10.2550    1.6426    0.0000 C.3     1  UNL1       -0.0507
     21 C           9.3039    1.3335    0.0000 C.3     1  UNL1       -0.0530
     22 C          20.3440    1.2824    0.0000 C.2     1  UNL1       -0.0878
     23 C           8.5608    2.0027    0.0000 C.3     1  UNL1       -0.0531
     24 C           7.6097    1.6936    0.0000 C.3     1  UNL1       -0.0530
     25 C           6.8666    2.3628    0.0000 C.3     1  UNL1       -0.0507
     26 C          21.2950    0.9734    0.0000 C.2     1  UNL1       -0.0879
     27 C           5.9155    2.0538    0.0000 C.3     1  UNL1       -0.0265
     28 C          21.5030   -0.0047    0.0000 C.3     1  UNL1       -0.0348
     29 C           5.1724    2.7229    0.0000 C.3     1  UNL1        0.0594
     30 C          22.4540   -0.3137    0.0000 C.3     1  UNL1       -0.0496
     31 C          22.6619   -1.2919    0.0000 C.3     1  UNL1       -0.0528
     32 C           4.2213    2.4139    0.0000 C.3     1  UNL1        0.0050
     33 C          23.6130   -1.6009    0.0000 C.3     1  UNL1       -0.0530
     34 C          23.8209   -2.5791    0.0000 C.3     1  UNL1       -0.0531
     35 C          24.7720   -2.8881    0.0000 C.3     1  UNL1       -0.0531
     36 C           3.4782    3.0830    0.0000 C.2     1  UNL1        0.0385
     37 C          24.9799   -3.8662    0.0000 C.3     1  UNL1       -0.0531
     38 C           3.5827    4.0775    0.0000 C.2     1  UNL1       -0.0342
     39 C          25.9309   -4.1752    0.0000 C.3     1  UNL1       -0.0533
     40 C           2.6691    4.4843    0.0000 C.3     1  UNL1        0.1195
     41 C           2.5000    2.8751    0.0000 C.2     1  UNL1        0.3356
     42 C          26.1388   -5.1534    0.0000 C.3     1  UNL1       -0.0559
     43 C           2.4612    5.4624    0.0000 C.3     1  UNL1       -0.0240
     44 C          27.0899   -5.4624    0.0000 C.3     1  UNL1       -0.0653
     45 H          15.2046   -0.2773    0.0000 H       1  UNL1        0.0622
     46 H          17.0886   -0.2773    0.0000 H       1  UNL1        0.0622
     47 H          15.7114    2.1299    0.0000 H       1  UNL1        0.0292
     48 H          15.0401    1.6422    0.0000 H       1  UNL1        0.0292
     49 H          17.2530    1.6422    0.0000 H       1  UNL1        0.0292
     50 H          16.5818    2.1299    0.0000 H       1  UNL1        0.0292
     51 H          13.7968    0.0616    0.0000 H       1  UNL1        0.0619
     52 H          18.4963    0.0616    0.0000 H       1  UNL1        0.0619
     53 H          14.1319    1.3040    0.0000 H       1  UNL1        0.0292
     54 H          13.3523    1.4697    0.0000 H       1  UNL1        0.0292
     55 H          18.9409    1.4697    0.0000 H       1  UNL1        0.0294
     56 H          18.1612    1.3040    0.0000 H       1  UNL1        0.0294
     57 H          12.2037    0.2316    0.0000 H       1  UNL1        0.0291
     58 H          12.9834    0.0659    0.0000 H       1  UNL1        0.0291
     59 H          11.4884    1.6973    0.0000 H       1  UNL1        0.0593
     60 H          19.3098    0.0659    0.0000 H       1  UNL1        0.0308
     61 H          20.0894    0.2316    0.0000 H       1  UNL1        0.0308
     62 H          10.5095    0.5917    0.0000 H       1  UNL1        0.0290
     63 H          11.2892    0.4260    0.0000 H       1  UNL1        0.0290
     64 H          13.5889   -0.9165    0.0000 H       1  UNL1        0.2099
     65 H          18.7042   -0.9165    0.0000 H       1  UNL1        0.2099
     66 H          10.7435    2.0243    0.0000 H       1  UNL1        0.0266
     67 H           9.9639    2.1900    0.0000 H       1  UNL1        0.0266
     68 H           8.8153    0.9518    0.0000 H       1  UNL1        0.0265
     69 H           9.5950    0.7861    0.0000 H       1  UNL1        0.0265
     70 H          20.2151    1.8889    0.0000 H       1  UNL1        0.0569
     71 H           9.0493    2.3844    0.0000 H       1  UNL1        0.0265
     72 H           8.2697    2.5501    0.0000 H       1  UNL1        0.0265
     73 H          11.6963    2.6754    0.0000 H       1  UNL1        0.2098
     74 H           7.1211    1.3119    0.0000 H       1  UNL1        0.0265
     75 H           7.9008    1.1462    0.0000 H       1  UNL1        0.0265
     76 H           7.3551    2.7445    0.0000 H       1  UNL1        0.0266
     77 H           6.5755    2.9102    0.0000 H       1  UNL1        0.0266
     78 H          21.7558    1.3883    0.0000 H       1  UNL1        0.0569
     79 H           5.4269    1.6720    0.0000 H       1  UNL1        0.0290
     80 H           6.2066    1.5063    0.0000 H       1  UNL1        0.0290
     81 H          20.8833   -0.0264    0.0000 H       1  UNL1        0.0307
     82 H          21.4167   -0.6187    0.0000 H       1  UNL1        0.0307
     83 H           5.7620    2.9145    0.0000 H       1  UNL1        0.0596
     84 H          23.0736   -0.2921    0.0000 H       1  UNL1        0.0268
     85 H          22.5403    0.3002    0.0000 H       1  UNL1        0.0268
     86 H          22.0423   -1.3135    0.0000 H       1  UNL1        0.0265
     87 H          22.5756   -1.9059    0.0000 H       1  UNL1        0.0265
     88 H           3.7327    2.0322    0.0000 H       1  UNL1        0.0340
     89 H           4.5124    1.8664    0.0000 H       1  UNL1        0.0340
     90 H          24.2326   -1.5793    0.0000 H       1  UNL1        0.0265
     91 H          23.6993   -0.9869    0.0000 H       1  UNL1        0.0265
     92 H          23.2013   -2.6007    0.0000 H       1  UNL1        0.0265
     93 H          23.7346   -3.1930    0.0000 H       1  UNL1        0.0265
     94 H          25.3916   -2.8664    0.0000 H       1  UNL1        0.0265
     95 H          24.8582   -2.2741    0.0000 H       1  UNL1        0.0265
     96 H          24.3602   -3.8879    0.0000 H       1  UNL1        0.0265
     97 H          24.8936   -4.4802    0.0000 H       1  UNL1        0.0265
     98 H           5.9699    3.8926    0.0000 H       1  UNL1        0.2098
     99 H           4.1196    4.3875    0.0000 H       1  UNL1        0.0613
    100 H          26.5505   -4.1536    0.0000 H       1  UNL1        0.0265
    101 H          26.0172   -3.5613    0.0000 H       1  UNL1        0.0265
    102 H           2.0703    4.6447    0.0000 H       1  UNL1        0.0777
    103 H          25.5192   -5.1750    0.0000 H       1  UNL1        0.0263
    104 H          26.0525   -5.7674    0.0000 H       1  UNL1        0.0263
    105 H           3.0677    5.5913    0.0000 H       1  UNL1        0.0268
    106 H           2.3323    6.0689    0.0000 H       1  UNL1        0.0268
    107 H           1.8548    5.3335    0.0000 H       1  UNL1        0.0268
    108 H          26.8983   -6.0521    0.0000 H       1  UNL1        0.0230
    109 H          27.6795   -5.6540    0.0000 H       1  UNL1        0.0230
    110 H          27.2815   -4.8728    0.0000 H       1  UNL1        0.0230
@<TRIPOS>BOND
     1     1     8    1
     2     1     9    1
     3    12     2    1
     4     2    64    1
     5    13     3    1
     6     3    65    1
     7    17     4    1
     8     4    73    1
     9    29     5    1
    10     5    98    1
    11     6    40    1
    12     6    41    1
    13     7    41    2
    14     8    10    1
    15     8    12    1
    16     8    45    1
    17     9    11    1
    18     9    13    1
    19     9    46    1
    20    10    11    1
    21    10    47    1
    22    10    48    1
    23    11    49    1
    24    11    50    1
    25    12    14    1
    26    12    51    1
    27    13    15    1
    28    13    52    1
    29    14    16    1
    30    14    53    1
    31    14    54    1
    32    15    18    1
    33    15    55    1
    34    15    56    1
    35    16    17    1
    36    16    57    1
    37    16    58    1
    38    17    19    1
    39    17    59    1
    40    18    22    1
    41    18    60    1
    42    18    61    1
    43    19    20    1
    44    19    62    1
    45    19    63    1
    46    20    21    1
    47    20    66    1
    48    20    67    1
    49    21    23    1
    50    21    68    1
    51    21    69    1
    52    22    26    2
    53    22    70    1
    54    23    24    1
    55    23    71    1
    56    23    72    1
    57    24    25    1
    58    24    74    1
    59    24    75    1
    60    25    27    1
    61    25    76    1
    62    25    77    1
    63    26    28    1
    64    26    78    1
    65    27    29    1
    66    27    79    1
    67    27    80    1
    68    28    30    1
    69    28    81    1
    70    28    82    1
    71    29    32    1
    72    29    83    1
    73    30    31    1
    74    30    84    1
    75    30    85    1
    76    31    33    1
    77    31    86    1
    78    31    87    1
    79    32    36    1
    80    32    88    1
    81    32    89    1
    82    33    34    1
    83    33    90    1
    84    33    91    1
    85    34    35    1
    86    34    92    1
    87    34    93    1
    88    35    37    1
    89    35    94    1
    90    35    95    1
    91    36    38    2
    92    36    41    1
    93    37    39    1
    94    37    96    1
    95    37    97    1
    96    38    40    1
    97    38    99    1
    98    39    42    1
    99    39   100    1
   100    39   101    1
   101    40    43    1
   102    40   102    1
   103    42    44    1
   104    42   103    1
   105    42   104    1
   106    43   105    1
   107    43   106    1
   108    43   107    1
   109    44   108    1
   110    44   109    1
   111    44   110    1
