@<TRIPOS>MOLECULE
IMPHY008394
 19 19 0 0 0
SMALL
GASTEIGER

@<TRIPOS>ATOM
      1 O           4.5981    1.5600    0.0000 O.3     1  UNL1       -0.4644
      2 O           2.0000   -1.9400    0.0000 O.3     1  UNL1       -0.5067
      3 O           2.8660    1.5600    0.0000 O.2     1  UNL1       -0.2450
      4 C           3.7320    0.0600    0.0000 C.ar    1  UNL1        0.0624
      5 C           2.8660   -0.4400    0.0000 C.ar    1  UNL1       -0.0062
      6 C           4.5981   -0.4400    0.0000 C.ar    1  UNL1       -0.0475
      7 C           2.8660   -1.4400    0.0000 C.ar    1  UNL1        0.1176
      8 C           4.5981   -1.4400    0.0000 C.ar    1  UNL1       -0.0575
      9 C           3.7320   -1.9400    0.0000 C.ar    1  UNL1       -0.0201
     10 C           3.7320    1.0600    0.0000 C.2     1  UNL1        0.3390
     11 C           4.5981    2.5600    0.0000 C.3     1  UNL1        0.0820
     12 H           2.3291   -0.1300    0.0000 H       1  UNL1        0.0662
     13 H           5.1350   -0.1300    0.0000 H       1  UNL1        0.0626
     14 H           5.1350   -1.7500    0.0000 H       1  UNL1        0.0619
     15 H           3.7320   -2.5600    0.0000 H       1  UNL1        0.0654
     16 H           5.2181    2.5600    0.0000 H       1  UNL1        0.0661
     17 H           4.5981    3.1800    0.0000 H       1  UNL1        0.0661
     18 H           3.9781    2.5600    0.0000 H       1  UNL1        0.0661
     19 H           2.0000   -2.5600    0.0000 H       1  UNL1        0.2921
@<TRIPOS>BOND
     1     1    10    1
     2     1    11    1
     3     2     7    1
     4     2    19    1
     5     3    10    2
     6     4     5   ar
     7     4     6   ar
     8     4    10    1
     9     5     7   ar
    10     5    12    1
    11     6     8   ar
    12     6    13    1
    13     7     9   ar
    14     8     9   ar
    15     8    14    1
    16     9    15    1
    17    11    16    1
    18    11    17    1
    19    11    18    1
