@<TRIPOS>MOLECULE
IMPHY005884
 44 46 0 0 0
SMALL
GASTEIGER

@<TRIPOS>ATOM
      1 O           6.0290   -0.6117    0.0000 O.2     1  UNL1       -0.4616
      2 O           2.5369   -0.5771    0.0000 O.3     1  UNL1       -0.5062
      3 O           4.2690    2.4229    0.0000 O.3     1  UNL1       -0.5058
      4 O           6.0174    2.4575    0.0000 O.2     1  UNL1       -0.2863
      5 O           8.6709   -0.0496    0.0000 O.3     1  UNL1       -0.5060
      6 O          10.3914    2.9571    0.0000 O.3     1  UNL1       -0.5066
      7 C           4.2690   -0.5771    0.0000 C.ar    1  UNL1        0.0408
      8 C           5.1350   -0.0771    0.0000 C.ar    1  UNL1        0.1489
      9 C           5.1350    0.9229    0.0000 C.ar    1  UNL1        0.1063
     10 C           4.2690   -1.5771    0.0000 C.3     1  UNL1       -0.0023
     11 C           6.9350    0.9437    0.0000 C.ar    1  UNL1        0.0679
     12 C           6.0290    1.4576    0.0000 C.ar    1  UNL1        0.2038
     13 C           3.4030   -0.0771    0.0000 C.ar    1  UNL1        0.1273
     14 C           4.2690    1.4229    0.0000 C.ar    1  UNL1        0.1347
     15 C           3.4030    0.9229    0.0000 C.ar    1  UNL1        0.0225
     16 C           7.7991    1.4471    0.0000 C.ar    1  UNL1        0.0304
     17 C           6.9350   -0.0979    0.0000 C.ar    1  UNL1        0.1040
     18 C           3.4030   -2.0771    0.0000 C.2     1  UNL1       -0.0807
     19 C           3.4030   -3.0771    0.0000 C.2     1  UNL1       -0.0793
     20 C           8.6671    0.9504    0.0000 C.ar    1  UNL1        0.1282
     21 C           7.7953    2.4471    0.0000 C.ar    1  UNL1       -0.0469
     22 C           9.5312    1.4538    0.0000 C.ar    1  UNL1        0.0219
     23 C           8.6594    2.9504    0.0000 C.ar    1  UNL1       -0.0194
     24 C           2.5369   -3.5771    0.0000 C.3     1  UNL1       -0.0440
     25 C           4.2690   -3.5771    0.0000 C.3     1  UNL1       -0.0440
     26 C           9.5273    2.4537    0.0000 C.ar    1  UNL1        0.1204
     27 H           4.4810   -2.1597    0.0000 H       1  UNL1        0.0358
     28 H           4.8796   -1.4694    0.0000 H       1  UNL1        0.0358
     29 H           2.8660    1.2329    0.0000 H       1  UNL1        0.0691
     30 H           7.4708   -0.4100    0.0000 H       1  UNL1        0.1037
     31 H           2.8660   -1.7671    0.0000 H       1  UNL1        0.0575
     32 H           7.2571    2.7550    0.0000 H       1  UNL1        0.0626
     33 H          10.0693    1.1458    0.0000 H       1  UNL1        0.0691
     34 H           8.6570    3.5704    0.0000 H       1  UNL1        0.0654
     35 H           2.0000   -0.2671    0.0000 H       1  UNL1        0.2921
     36 H           3.7320    2.7329    0.0000 H       1  UNL1        0.2922
     37 H           3.9590   -4.1140    0.0000 H       1  UNL1        0.0274
     38 H           4.8059   -3.8871    0.0000 H       1  UNL1        0.0274
     39 H           4.5790   -3.0401    0.0000 H       1  UNL1        0.0274
     40 H           2.2269   -3.0401    0.0000 H       1  UNL1        0.0274
     41 H           2.0000   -3.8871    0.0000 H       1  UNL1        0.0274
     42 H           2.8469   -4.1140    0.0000 H       1  UNL1        0.0274
     43 H           9.2090   -0.3575    0.0000 H       1  UNL1        0.2922
     44 H          10.3890    3.5771    0.0000 H       1  UNL1        0.2921
@<TRIPOS>BOND
     1     1     8   ar
     2     1    17   ar
     3     2    13    1
     4     2    35    1
     5     3    14    1
     6     3    36    1
     7     4    12    2
     8     5    20    1
     9     5    43    1
    10     6    26    1
    11     6    44    1
    12     7     8   ar
    13     7    10    1
    14     7    13   ar
    15     8     9   ar
    16     9    12   ar
    17     9    14   ar
    18    10    18    1
    19    10    27    1
    20    10    28    1
    21    11    12   ar
    22    11    16    1
    23    11    17   ar
    24    13    15   ar
    25    14    15   ar
    26    15    29    1
    27    16    20   ar
    28    16    21   ar
    29    17    30    1
    30    18    19    2
    31    18    31    1
    32    19    24    1
    33    19    25    1
    34    20    22   ar
    35    21    23   ar
    36    21    32    1
    37    22    26   ar
    38    22    33    1
    39    23    26   ar
    40    23    34    1
    41    24    40    1
    42    24    41    1
    43    24    42    1
    44    25    37    1
    45    25    38    1
    46    25    39    1
