@<TRIPOS>MOLECULE
IMPHY017237
 36 37 0 0 0
SMALL
GASTEIGER

@<TRIPOS>ATOM
      1 O           2.8090    2.3156    0.0000 O.2     1  UNL1       -0.4678
      2 O           7.5848   -2.9884    0.0000 O.2     1  UNL1       -0.4678
      3 O           5.1928   -0.3401    0.0000 O.2     1  UNL1       -0.2974
      4 C           5.7281    1.3072    0.0000 C.3     1  UNL1        0.0062
      5 C           6.8870    0.0200    0.0000 C.3     1  UNL1        0.0062
      6 C           4.7770    1.6162    0.0000 C.3     1  UNL1       -0.0395
      7 C           7.0949   -0.9581    0.0000 C.3     1  UNL1       -0.0395
      8 C           5.9360    0.3291    0.0000 C.2     1  UNL1        0.1334
      9 C           4.5691    2.5944    0.0000 C.3     1  UNL1        0.0059
     10 C           8.0460   -1.2671    0.0000 C.3     1  UNL1        0.0059
     11 C           3.6180    2.9034    0.0000 C.ar    1  UNL1        0.1049
     12 C           8.2539   -2.2453    0.0000 C.ar    1  UNL1        0.1049
     13 C           3.3090    3.8544    0.0000 C.ar    1  UNL1       -0.0207
     14 C           9.1674   -2.6520    0.0000 C.ar    1  UNL1       -0.0207
     15 C           2.3090    3.8544    0.0000 C.ar    1  UNL1       -0.0237
     16 C           9.0629   -3.6465    0.0000 C.ar    1  UNL1       -0.0237
     17 C           2.0000    2.9034    0.0000 C.ar    1  UNL1        0.0921
     18 C           8.0848   -3.8544    0.0000 C.ar    1  UNL1        0.0921
     19 H           6.3477    1.3288    0.0000 H       1  UNL1        0.0342
     20 H           5.8144    1.9212    0.0000 H       1  UNL1        0.0342
     21 H           7.5066    0.0417    0.0000 H       1  UNL1        0.0342
     22 H           6.9733    0.6340    0.0000 H       1  UNL1        0.0342
     23 H           4.1574    1.5946    0.0000 H       1  UNL1        0.0273
     24 H           4.6907    1.0023    0.0000 H       1  UNL1        0.0273
     25 H           6.4753   -0.9797    0.0000 H       1  UNL1        0.0273
     26 H           7.0086   -1.5721    0.0000 H       1  UNL1        0.0273
     27 H           5.1887    2.6160    0.0000 H       1  UNL1        0.0344
     28 H           4.6554    3.2083    0.0000 H       1  UNL1        0.0344
     29 H           8.6656   -1.2455    0.0000 H       1  UNL1        0.0344
     30 H           8.1323   -0.6532    0.0000 H       1  UNL1        0.0344
     31 H           3.6734    4.3560    0.0000 H       1  UNL1        0.0652
     32 H           9.7044   -2.3420    0.0000 H       1  UNL1        0.0652
     33 H           1.9446    4.3560    0.0000 H       1  UNL1        0.0649
     34 H           9.5237   -4.0614    0.0000 H       1  UNL1        0.0649
     35 H           1.4103    2.7118    0.0000 H       1  UNL1        0.1029
     36 H           7.8326   -4.4208    0.0000 H       1  UNL1        0.1029
@<TRIPOS>BOND
     1     1    11   ar
     2     1    17   ar
     3     2    12   ar
     4     2    18   ar
     5     3     8    2
     6     4     6    1
     7     4     8    1
     8     4    19    1
     9     4    20    1
    10     5     7    1
    11     5     8    1
    12     5    21    1
    13     5    22    1
    14     6     9    1
    15     6    23    1
    16     6    24    1
    17     7    10    1
    18     7    25    1
    19     7    26    1
    20     9    11    1
    21     9    27    1
    22     9    28    1
    23    10    12    1
    24    10    29    1
    25    10    30    1
    26    11    13   ar
    27    12    14   ar
    28    13    15   ar
    29    13    31    1
    30    14    16   ar
    31    14    32    1
    32    15    17   ar
    33    15    33    1
    34    16    18   ar
    35    16    34    1
    36    17    35    1
    37    18    36    1
