@<TRIPOS>MOLECULE
IMPHY016058
 41 43 0 0 0
SMALL
GASTEIGER

@<TRIPOS>ATOM
      1 C           2.9944    0.5511    0.0000 C.3     1  UNL1       -0.0256
      2 C           3.8307    0.1483    0.0000 C.3     1  UNL1       -0.0318
      3 C           2.9837   -0.3106    0.0000 C.3     1  UNL1       -0.0299
      4 C           4.6671    0.5511    0.0000 C.3     1  UNL1       -0.0348
      5 C           3.4517   -1.2254    0.0000 C.3     1  UNL1       -0.0313
      6 C           4.6857   -0.3106    0.0000 C.3     1  UNL1       -0.0459
      7 C           4.3240   -0.8211    0.0000 C.3     1  UNL1       -0.0440
      8 C           2.7879    1.4560    0.0000 C.3     1  UNL1       -0.0471
      9 C           4.8736    1.4560    0.0000 C.3     1  UNL1       -0.0408
     10 C           2.0000    0.4453    0.0000 C.3     1  UNL1       -0.0590
     11 C           3.3666    2.1818    0.0000 C.3     1  UNL1       -0.0523
     12 C           4.2949    2.1818    0.0000 C.3     1  UNL1       -0.0502
     13 C           3.7438   -2.1818    0.0000 C.3     1  UNL1       -0.0595
     14 C           2.6324   -1.7987    0.0000 C.3     1  UNL1       -0.0595
     15 C           5.8292    1.7508    0.0000 C.3     1  UNL1       -0.0622
     16 H           4.4182   -0.0500    0.0000 H       1  UNL1        0.0309
     17 H           2.3801   -0.4521    0.0000 H       1  UNL1        0.0311
     18 H           5.2839    0.4884    0.0000 H       1  UNL1        0.0306
     19 H           4.6902   -0.9306    0.0000 H       1  UNL1        0.0271
     20 H           5.3057   -0.3016    0.0000 H       1  UNL1        0.0271
     21 H           4.5916   -1.3804    0.0000 H       1  UNL1        0.0273
     22 H           4.8800   -0.5467    0.0000 H       1  UNL1        0.0273
     23 H           2.4013    1.9408    0.0000 H       1  UNL1        0.0271
     24 H           2.2292    1.1871    0.0000 H       1  UNL1        0.0271
     25 H           5.3281    1.0343    0.0000 H       1  UNL1        0.0301
     26 H           1.9344    1.0619    0.0000 H       1  UNL1        0.0235
     27 H           1.3835    0.3798    0.0000 H       1  UNL1        0.0235
     28 H           2.0656   -0.1712    0.0000 H       1  UNL1        0.0235
     29 H           3.5046    2.7862    0.0000 H       1  UNL1        0.0266
     30 H           2.8080    2.4508    0.0000 H       1  UNL1        0.0266
     31 H           4.8535    2.4508    0.0000 H       1  UNL1        0.0268
     32 H           4.1569    2.7862    0.0000 H       1  UNL1        0.0268
     33 H           3.1508   -2.3628    0.0000 H       1  UNL1        0.0235
     34 H           3.9249   -2.7747    0.0000 H       1  UNL1        0.0235
     35 H           4.3368   -2.0007    0.0000 H       1  UNL1        0.0235
     36 H           2.2769   -1.2907    0.0000 H       1  UNL1        0.0235
     37 H           2.1244   -2.1541    0.0000 H       1  UNL1        0.0235
     38 H           2.9879   -2.3067    0.0000 H       1  UNL1        0.0235
     39 H           6.0119    1.1583    0.0000 H       1  UNL1        0.0233
     40 H           6.4217    1.9335    0.0000 H       1  UNL1        0.0233
     41 H           5.6465    2.3432    0.0000 H       1  UNL1        0.0233
@<TRIPOS>BOND
     1     1     2    1
     2     1     3    1
     3     1     8    1
     4     1    10    1
     5     2     4    1
     6     2     7    1
     7     2    16    1
     8     3     5    1
     9     3     6    1
    10     3    17    1
    11     4     6    1
    12     4     9    1
    13     4    18    1
    14     5     7    1
    15     5    13    1
    16     5    14    1
    17     6    19    1
    18     6    20    1
    19     7    21    1
    20     7    22    1
    21     8    11    1
    22     8    23    1
    23     8    24    1
    24     9    12    1
    25     9    15    1
    26     9    25    1
    27    10    26    1
    28    10    27    1
    29    10    28    1
    30    11    12    1
    31    11    29    1
    32    11    30    1
    33    12    31    1
    34    12    32    1
    35    13    33    1
    36    13    34    1
    37    13    35    1
    38    14    36    1
    39    14    37    1
    40    14    38    1
    41    15    39    1
    42    15    40    1
    43    15    41    1
