@<TRIPOS>MOLECULE
IMPHY014818
 40 43 0 0 0
SMALL
GASTEIGER

@<TRIPOS>ATOM
      1 O           4.1282   -2.2116    0.0000 O.3     1  UNL1       -0.3680
      2 C           4.1282    0.8451    0.0000 C.3     1  UNL1       -0.0289
      3 C           5.1282    0.8451    0.0000 C.3     1  UNL1       -0.0319
      4 C           4.6282    1.7116    0.0000 C.3     1  UNL1       -0.0284
      5 C           3.5047    0.0632    0.0000 C.3     1  UNL1       -0.0293
      6 C           3.7272   -0.9117    0.0000 C.3     1  UNL1       -0.0063
      7 C           4.6282   -1.3456    0.0000 C.3     1  UNL1        0.0959
      8 C           5.7517    0.0632    0.0000 C.3     1  UNL1       -0.0467
      9 C           2.5144    0.1498    0.0000 C.3     1  UNL1       -0.0404
     10 C           5.5291   -0.9117    0.0000 C.3     1  UNL1       -0.0210
     11 C           2.8725   -1.4193    0.0000 C.3     1  UNL1       -0.0470
     12 C           2.1245   -0.7646    0.0000 C.3     1  UNL1       -0.0498
     13 C           5.1282   -2.2116    0.0000 C.3     1  UNL1        0.0777
     14 C           5.4942    2.2116    0.0000 C.3     1  UNL1       -0.0593
     15 C           3.7622    2.2116    0.0000 C.3     1  UNL1       -0.0593
     16 C           2.0000    1.0073    0.0000 C.3     1  UNL1       -0.0621
     17 H           3.4258    1.3238    0.0000 H       1  UNL1        0.0312
     18 H           5.8305    1.3238    0.0000 H       1  UNL1        0.0309
     19 H           3.2603    0.6330    0.0000 H       1  UNL1        0.0310
     20 H           3.7542   -1.5311    0.0000 H       1  UNL1        0.0332
     21 H           6.3103   -0.2058    0.0000 H       1  UNL1        0.0269
     22 H           6.1382    0.5480    0.0000 H       1  UNL1        0.0269
     23 H           1.8958    0.1073    0.0000 H       1  UNL1        0.0301
     24 H           5.6671   -1.5162    0.0000 H       1  UNL1        0.0294
     25 H           6.1492   -0.9117    0.0000 H       1  UNL1        0.0294
     26 H           2.4174   -1.8404    0.0000 H       1  UNL1        0.0269
     27 H           3.2434   -1.9162    0.0000 H       1  UNL1        0.0269
     28 H           1.5829   -0.4629    0.0000 H       1  UNL1        0.0268
     29 H           1.7674   -1.2715    0.0000 H       1  UNL1        0.0268
     30 H           5.2358   -2.8222    0.0000 H       1  UNL1        0.0589
     31 H           5.7108   -1.9996    0.0000 H       1  UNL1        0.0589
     32 H           5.8042    1.6747    0.0000 H       1  UNL1        0.0235
     33 H           6.0311    2.5216    0.0000 H       1  UNL1        0.0235
     34 H           5.1842    2.7485    0.0000 H       1  UNL1        0.0235
     35 H           4.0722    2.7485    0.0000 H       1  UNL1        0.0235
     36 H           3.2252    2.5216    0.0000 H       1  UNL1        0.0235
     37 H           3.4522    1.6747    0.0000 H       1  UNL1        0.0235
     38 H           2.5317    1.3262    0.0000 H       1  UNL1        0.0233
     39 H           1.6811    1.5390    0.0000 H       1  UNL1        0.0233
     40 H           1.4683    0.6884    0.0000 H       1  UNL1        0.0233
@<TRIPOS>BOND
     1     1     7    1
     2     1    13    1
     3     2     3    1
     4     2     4    1
     5     2     5    1
     6     2    17    1
     7     3     4    1
     8     3     8    1
     9     3    18    1
    10     4    14    1
    11     4    15    1
    12     5     6    1
    13     5     9    1
    14     5    19    1
    15     6     7    1
    16     6    11    1
    17     6    20    1
    18     7    10    1
    19     7    13    1
    20     8    10    1
    21     8    21    1
    22     8    22    1
    23     9    12    1
    24     9    16    1
    25     9    23    1
    26    10    24    1
    27    10    25    1
    28    11    12    1
    29    11    26    1
    30    11    27    1
    31    12    28    1
    32    12    29    1
    33    13    30    1
    34    13    31    1
    35    14    32    1
    36    14    33    1
    37    14    34    1
    38    15    35    1
    39    15    36    1
    40    15    37    1
    41    16    38    1
    42    16    39    1
    43    16    40    1
