@<TRIPOS>MOLECULE
IMPHY014190
 80 82 0 0 0
SMALL
GASTEIGER

@<TRIPOS>ATOM
      1 O           8.1301   -1.0118    0.0000 O.2     1  UNL1       -0.4542
      2 O           4.6000   -1.0360    0.0000 O.3     1  UNL1       -0.4914
      3 O          11.6602   -1.0360    0.0000 O.3     1  UNL1       -0.4882
      4 O          11.6602    1.0123    0.0000 O.3     1  UNL1       -0.4911
      5 O           6.3817    2.0228    0.0000 O.3     1  UNL1       -0.5055
      6 O           8.1301    1.9882    0.0000 O.2     1  UNL1       -0.2863
      7 C           8.9961    0.4882    0.0000 C.ar    1  UNL1        0.0719
      8 C           9.8901    1.0228    0.0000 C.ar    1  UNL1        0.0160
      9 C           7.2641    0.4882    0.0000 C.ar    1  UNL1        0.1064
     10 C           8.9961   -0.5118    0.0000 C.ar    1  UNL1        0.1432
     11 C           7.2641   -0.5118    0.0000 C.ar    1  UNL1        0.1463
     12 C           8.1301    0.9882    0.0000 C.ar    1  UNL1        0.2041
     13 C           5.4641    0.5090    0.0000 C.ar    1  UNL1        0.0403
     14 C           6.3701    1.0228    0.0000 C.ar    1  UNL1        0.1381
     15 C          10.7961    0.5090    0.0000 C.ar    1  UNL1        0.1659
     16 C           9.8785    2.0228    0.0000 C.3     1  UNL1       -0.0049
     17 C           5.4641   -0.5327    0.0000 C.ar    1  UNL1        0.1310
     18 C          10.7961   -0.5327    0.0000 C.ar    1  UNL1        0.1657
     19 C           9.8901   -1.0465    0.0000 C.ar    1  UNL1        0.0268
     20 C           6.3701   -1.0465    0.0000 C.ar    1  UNL1        0.0236
     21 C           4.6000    1.0123    0.0000 C.3     1  UNL1       -0.0023
     22 C          10.7387    2.5327    0.0000 C.2     1  UNL1       -0.0808
     23 C           4.6038   -2.0360    0.0000 C.3     1  UNL1        0.0896
     24 C          11.6564   -2.0360    0.0000 C.3     1  UNL1        0.0898
     25 C           3.7398   -2.5393    0.0000 C.3     1  UNL1       -0.0189
     26 C           3.7320    0.5156    0.0000 C.2     1  UNL1       -0.0807
     27 C          12.5205   -2.5393    0.0000 C.3     1  UNL1       -0.0189
     28 C          10.7271    3.5327    0.0000 C.2     1  UNL1       -0.0793
     29 C           3.7436   -3.5393    0.0000 C.3     1  UNL1       -0.0528
     30 C          12.5166   -3.5393    0.0000 C.3     1  UNL1       -0.0528
     31 C           2.8680    1.0190    0.0000 C.2     1  UNL1       -0.0793
     32 C          12.5282    0.5156    0.0000 C.3     1  UNL1        0.0790
     33 C          11.5873    4.0426    0.0000 C.3     1  UNL1       -0.0440
     34 C           9.8554    4.0226    0.0000 C.3     1  UNL1       -0.0440
     35 C           2.8795   -4.0426    0.0000 C.3     1  UNL1       -0.0652
     36 C          13.3807   -4.0426    0.0000 C.3     1  UNL1       -0.0652
     37 C           2.0000    0.5223    0.0000 C.3     1  UNL1       -0.0440
     38 C           2.8718    2.0190    0.0000 C.3     1  UNL1       -0.0440
     39 H           9.6597    2.6029    0.0000 H       1  UNL1        0.0357
     40 H           9.2692    1.9080    0.0000 H       1  UNL1        0.0357
     41 H           9.8829   -1.6665    0.0000 H       1  UNL1        0.0692
     42 H           6.3773   -1.6665    0.0000 H       1  UNL1        0.0691
     43 H           5.0003    1.4857    0.0000 H       1  UNL1        0.0358
     44 H           4.2033    1.4888    0.0000 H       1  UNL1        0.0358
     45 H          11.2792    2.2290    0.0000 H       1  UNL1        0.0575
     46 H           4.8181   -2.6178    0.0000 H       1  UNL1        0.0696
     47 H           5.2140   -1.9260    0.0000 H       1  UNL1        0.0696
     48 H          11.0462   -1.9260    0.0000 H       1  UNL1        0.0696
     49 H          11.4421   -2.6178    0.0000 H       1  UNL1        0.0696
     50 H           3.5254   -1.9575    0.0000 H       1  UNL1        0.0298
     51 H           3.1296   -2.6493    0.0000 H       1  UNL1        0.0298
     52 H           3.7296   -0.1043    0.0000 H       1  UNL1        0.0575
     53 H          13.1306   -2.6493    0.0000 H       1  UNL1        0.0298
     54 H          12.7348   -1.9575    0.0000 H       1  UNL1        0.0298
     55 H           5.8484    2.3389    0.0000 H       1  UNL1        0.2922
     56 H           3.9579   -4.1211    0.0000 H       1  UNL1        0.0264
     57 H           4.3538   -3.4293    0.0000 H       1  UNL1        0.0264
     58 H          11.9065   -3.4293    0.0000 H       1  UNL1        0.0264
     59 H          12.3023   -4.1211    0.0000 H       1  UNL1        0.0264
     60 H          12.2203   -0.0225    0.0000 H       1  UNL1        0.0660
     61 H          13.0663    0.2077    0.0000 H       1  UNL1        0.0660
     62 H          12.8361    1.0538    0.0000 H       1  UNL1        0.0660
     63 H          11.9035    3.5093    0.0000 H       1  UNL1        0.0274
     64 H          12.1206    4.3588    0.0000 H       1  UNL1        0.0274
     65 H          11.2711    4.5760    0.0000 H       1  UNL1        0.0274
     66 H          10.1592    4.5631    0.0000 H       1  UNL1        0.0274
     67 H           9.3149    4.3264    0.0000 H       1  UNL1        0.0274
     68 H           9.5516    3.4821    0.0000 H       1  UNL1        0.0274
     69 H           2.5674   -3.5069    0.0000 H       1  UNL1        0.0230
     70 H           2.3438   -4.3547    0.0000 H       1  UNL1        0.0230
     71 H           3.1916   -4.5784    0.0000 H       1  UNL1        0.0230
     72 H          13.0686   -4.5784    0.0000 H       1  UNL1        0.0230
     73 H          13.9164   -4.3547    0.0000 H       1  UNL1        0.0230
     74 H          13.6928   -3.5069    0.0000 H       1  UNL1        0.0230
     75 H           1.6921    1.0604    0.0000 H       1  UNL1        0.0274
     76 H           1.4619    0.2144    0.0000 H       1  UNL1        0.0274
     77 H           2.3079   -0.0158    0.0000 H       1  UNL1        0.0274
     78 H           3.4918    2.0166    0.0000 H       1  UNL1        0.0274
     79 H           2.8742    2.6390    0.0000 H       1  UNL1        0.0274
     80 H           2.2518    2.0214    0.0000 H       1  UNL1        0.0274
@<TRIPOS>BOND
     1     1    10   ar
     2     1    11   ar
     3     2    17    1
     4     2    23    1
     5     3    18    1
     6     3    24    1
     7     4    15    1
     8     4    32    1
     9     5    14    1
    10     5    55    1
    11     6    12    2
    12     7     8   ar
    13     7    10   ar
    14     7    12   ar
    15     8    15   ar
    16     8    16    1
    17     9    11   ar
    18     9    12   ar
    19     9    14   ar
    20    10    19   ar
    21    11    20   ar
    22    13    14   ar
    23    13    17   ar
    24    13    21    1
    25    15    18   ar
    26    16    22    1
    27    16    39    1
    28    16    40    1
    29    17    20   ar
    30    18    19   ar
    31    19    41    1
    32    20    42    1
    33    21    26    1
    34    21    43    1
    35    21    44    1
    36    22    28    2
    37    22    45    1
    38    23    25    1
    39    23    46    1
    40    23    47    1
    41    24    27    1
    42    24    48    1
    43    24    49    1
    44    25    29    1
    45    25    50    1
    46    25    51    1
    47    26    31    2
    48    26    52    1
    49    27    30    1
    50    27    53    1
    51    27    54    1
    52    28    33    1
    53    28    34    1
    54    29    35    1
    55    29    56    1
    56    29    57    1
    57    30    36    1
    58    30    58    1
    59    30    59    1
    60    31    37    1
    61    31    38    1
    62    32    60    1
    63    32    61    1
    64    32    62    1
    65    33    63    1
    66    33    64    1
    67    33    65    1
    68    34    66    1
    69    34    67    1
    70    34    68    1
    71    35    69    1
    72    35    70    1
    73    35    71    1
    74    36    72    1
    75    36    73    1
    76    36    74    1
    77    37    75    1
    78    37    76    1
    79    37    77    1
    80    38    78    1
    81    38    79    1
    82    38    80    1
