@<TRIPOS>MOLECULE
IMPHY006882
 41 46 0 0 0
SMALL
GASTEIGER

@<TRIPOS>ATOM
      1 O           5.3692   -3.7451    0.0000 O.2     1  UNL1       -0.2666
      2 O           2.7549    0.7523    0.0000 O.2     1  UNL1       -0.2852
      3 N           5.0091   -2.0509    0.0000 N.ar    1  UNL1       -0.2598
      4 N           5.3143    1.0674    0.0000 N.pl3   1  UNL1       -0.3104
      5 N           6.2962   -0.8919    0.0000 N.ar    1  UNL1       -0.2283
      6 C           4.5124   -0.5176    0.0000 C.ar    1  UNL1        0.0519
      7 C           3.7086   -1.1026    0.0000 C.ar    1  UNL1        0.0115
      8 C           5.3181   -1.0998    0.0000 C.ar    1  UNL1        0.1511
      9 C           4.0150   -2.0483    0.0000 C.ar    1  UNL1        0.0593
     10 C           4.5106    0.4824    0.0000 C.2     1  UNL1        0.0907
     11 C           5.6782   -2.7940    0.0000 C.ar    1  UNL1        0.2665
     12 C           3.7049    1.0646    0.0000 C.2     1  UNL1        0.2095
     13 C           4.0080    2.0113    0.0000 C.ar    1  UNL1        0.0447
     14 C           5.0080    2.0131    0.0000 C.ar    1  UNL1        0.0424
     15 C           6.6564   -2.5861    0.0000 C.ar    1  UNL1        0.0653
     16 C           2.6994   -0.8709    0.0000 C.ar    1  UNL1       -0.0519
     17 C           3.3334   -2.8278    0.0000 C.ar    1  UNL1       -0.0371
     18 C           6.9654   -1.6351    0.0000 C.ar    1  UNL1        0.0785
     19 C           2.0000   -1.6344    0.0000 C.ar    1  UNL1       -0.0611
     20 C           2.3191   -2.6195    0.0000 C.ar    1  UNL1       -0.0598
     21 C           3.5065    2.8765    0.0000 C.ar    1  UNL1       -0.0491
     22 C           5.5065    2.8800    0.0000 C.ar    1  UNL1       -0.0398
     23 C           7.3413   -3.3709    0.0000 C.ar    1  UNL1       -0.0473
     24 C           7.9808   -1.4028    0.0000 C.ar    1  UNL1       -0.0355
     25 C           4.0050    3.7434    0.0000 C.ar    1  UNL1       -0.0610
     26 C           5.0050    3.7451    0.0000 C.ar    1  UNL1       -0.0600
     27 C           8.3618   -3.1622    0.0000 C.ar    1  UNL1       -0.0609
     28 C           8.6837   -2.1715    0.0000 C.ar    1  UNL1       -0.0597
     29 H           5.9040    0.8758    0.0000 H       1  UNL1        0.1523
     30 H           2.5152   -0.2789    0.0000 H       1  UNL1        0.0624
     31 H           3.5313   -3.4154    0.0000 H       1  UNL1        0.0638
     32 H           1.3942   -1.5026    0.0000 H       1  UNL1        0.0618
     33 H           1.9056   -3.0815    0.0000 H       1  UNL1        0.0618
     34 H           2.8865    2.8754    0.0000 H       1  UNL1        0.0625
     35 H           6.1265    2.8810    0.0000 H       1  UNL1        0.0636
     36 H           7.1429   -3.9583    0.0000 H       1  UNL1        0.0626
     37 H           8.1655   -0.8110    0.0000 H       1  UNL1        0.0639
     38 H           3.6940    4.2798    0.0000 H       1  UNL1        0.0618
     39 H           5.3140    4.2826    0.0000 H       1  UNL1        0.0618
     40 H           8.7749   -3.6245    0.0000 H       1  UNL1        0.0618
     41 H           9.2897   -2.0403    0.0000 H       1  UNL1        0.0618
@<TRIPOS>BOND
     1     1    11    2
     2     2    12    2
     3     3     8   ar
     4     3     9   ar
     5     3    11   ar
     6     4    10    1
     7     4    14    1
     8     4    29    1
     9     5     8   ar
    10     5    18   ar
    11     6     7   ar
    12     6     8   ar
    13     6    10    2
    14     7     9   ar
    15     7    16   ar
    16     9    17   ar
    17    10    12    1
    18    11    15   ar
    19    12    13    1
    20    13    14   ar
    21    13    21   ar
    22    14    22   ar
    23    15    18   ar
    24    15    23   ar
    25    16    19   ar
    26    16    30    1
    27    17    20   ar
    28    17    31    1
    29    18    24   ar
    30    19    20   ar
    31    19    32    1
    32    20    33    1
    33    21    25   ar
    34    21    34    1
    35    22    26   ar
    36    22    35    1
    37    23    27   ar
    38    23    36    1
    39    24    28   ar
    40    24    37    1
    41    25    26   ar
    42    25    38    1
    43    26    39    1
    44    27    28   ar
    45    27    40    1
    46    28    41    1
