@<TRIPOS>MOLECULE
IMPHY001102
 80 84 0 0 0
SMALL
GASTEIGER

@<TRIPOS>ATOM
      1 O          10.9251    0.3969    0.0000 O.3     1  UNL1       -0.3945
      2 O           2.0000   -2.6896    0.0000 O.2     1  UNL1       -0.2968
      3 C           7.3931   -0.6372    0.0000 C.3     1  UNL1       -0.0233
      4 C           6.5271   -1.1372    0.0000 C.3     1  UNL1       -0.0231
      5 C           7.3931    0.3628    0.0000 C.3     1  UNL1       -0.0312
      6 C           5.6610   -0.6372    0.0000 C.3     1  UNL1       -0.0294
      7 C           8.2870    0.8974    0.0000 C.3     1  UNL1       -0.0235
      8 C           4.7510   -1.1441    0.0000 C.3     1  UNL1       -0.0246
      9 C           9.1931    0.3836    0.0000 C.3     1  UNL1       -0.0024
     10 C           8.2870   -1.1719    0.0000 C.3     1  UNL1       -0.0463
     11 C           4.7430   -2.1857    0.0000 C.3     1  UNL1       -0.0235
     12 C           6.5271    0.8628    0.0000 C.3     1  UNL1       -0.0491
     13 C           5.6610    0.3628    0.0000 C.3     1  UNL1       -0.0489
     14 C           6.5431   -2.1788    0.0000 C.3     1  UNL1       -0.0466
     15 C           9.1931   -0.6581    0.0000 C.3     1  UNL1       -0.0445
     16 C           8.4971    1.9113    0.0000 C.3     1  UNL1       -0.0167
     17 C           5.6451   -2.7065    0.0000 C.3     1  UNL1       -0.0483
     18 C           9.9554    1.0843    0.0000 C.3     1  UNL1       -0.0445
     19 C           7.7352   -1.5769    0.0000 C.3     1  UNL1       -0.0588
     20 C           7.1698   -1.9033    0.0000 C.3     1  UNL1       -0.0588
     21 C           3.8242   -0.5800    0.0000 C.3     1  UNL1       -0.0404
     22 C           3.8076   -2.7354    0.0000 C.3     1  UNL1        0.0267
     23 C           9.5262    2.0266    0.0000 C.3     1  UNL1       -0.0457
     24 C           4.7587   -0.1441    0.0000 C.3     1  UNL1       -0.0590
     25 C          10.0629   -0.1097    0.0000 C.3     1  UNL1        0.0501
     26 C           2.8763   -1.1080    0.0000 C.3     1  UNL1        0.0069
     27 C           2.8680   -2.1929    0.0000 C.2     1  UNL1        0.1392
     28 C           7.8236    2.6505    0.0000 C.2     1  UNL1       -0.0763
     29 C           3.3109   -3.6034    0.0000 C.3     1  UNL1       -0.0528
     30 C           4.3109   -3.5995    0.0000 C.3     1  UNL1       -0.0528
     31 C           8.1269    3.6034    0.0000 C.3     1  UNL1       -0.0438
     32 C           6.8467    2.4367    0.0000 C.2     1  UNL1       -0.0994
     33 H           7.3865    1.2127    0.0000 H       1  UNL1        0.0309
     34 H           6.3972   -0.2122    0.0000 H       1  UNL1        0.0312
     35 H           7.5943    1.3900    0.0000 H       1  UNL1        0.0315
     36 H           7.8824   -1.6417    0.0000 H       1  UNL1        0.0271
     37 H           8.6806   -1.6509    0.0000 H       1  UNL1        0.0271
     38 H           4.7463   -3.0357    0.0000 H       1  UNL1        0.0315
     39 H           6.9256    1.3377    0.0000 H       1  UNL1        0.0268
     40 H           6.1285    1.3377    0.0000 H       1  UNL1        0.0268
     41 H           5.4490    0.9454    0.0000 H       1  UNL1        0.0268
     42 H           5.0504    0.2551    0.0000 H       1  UNL1        0.0268
     43 H           6.7612   -2.7592    0.0000 H       1  UNL1        0.0271
     44 H           7.1523   -2.0632    0.0000 H       1  UNL1        0.0271
     45 H           9.4022   -1.2418    0.0000 H       1  UNL1        0.0272
     46 H           9.8040   -0.5520    0.0000 H       1  UNL1        0.0272
     47 H           7.8992    1.7476    0.0000 H       1  UNL1        0.0348
     48 H           5.2478   -3.1825    0.0000 H       1  UNL1        0.0269
     49 H           6.0460   -3.1794    0.0000 H       1  UNL1        0.0269
     50 H          10.3247    0.5863    0.0000 H       1  UNL1        0.0272
     51 H          10.4895    1.3992    0.0000 H       1  UNL1        0.0272
     52 H           7.1526   -1.7890    0.0000 H       1  UNL1        0.0235
     53 H           7.9473   -2.1595    0.0000 H       1  UNL1        0.0235
     54 H           8.3178   -1.3648    0.0000 H       1  UNL1        0.0235
     55 H           6.6949   -2.3018    0.0000 H       1  UNL1        0.0235
     56 H           7.5684   -2.3782    0.0000 H       1  UNL1        0.0235
     57 H           7.6448   -1.5048    0.0000 H       1  UNL1        0.0235
     58 H           4.2324   -0.1134    0.0000 H       1  UNL1        0.0275
     59 H           3.4343   -0.0980    0.0000 H       1  UNL1        0.0275
     60 H          10.1143    2.2229    0.0000 H       1  UNL1        0.0271
     61 H           9.3928    2.6321    0.0000 H       1  UNL1        0.0271
     62 H           5.3787   -0.1489    0.0000 H       1  UNL1        0.0235
     63 H           4.7635    0.4759    0.0000 H       1  UNL1        0.0235
     64 H           4.1388   -0.1393    0.0000 H       1  UNL1        0.0235
     65 H           9.6681   -0.5877    0.0000 H       1  UNL1        0.0563
     66 H          10.4651   -0.5816    0.0000 H       1  UNL1        0.0563
     67 H           2.6718   -0.5227    0.0000 H       1  UNL1        0.0342
     68 H           2.2647   -1.2093    0.0000 H       1  UNL1        0.0342
     69 H           2.7728   -3.2954    0.0000 H       1  UNL1        0.0239
     70 H           3.0030   -4.1415    0.0000 H       1  UNL1        0.0239
     71 H           3.8490   -3.9113    0.0000 H       1  UNL1        0.0239
     72 H           3.7752   -3.9116    0.0000 H       1  UNL1        0.0239
     73 H           4.6230   -4.1352    0.0000 H       1  UNL1        0.0239
     74 H           4.8466   -3.2874    0.0000 H       1  UNL1        0.0239
     75 H          11.4644    0.0911    0.0000 H       1  UNL1        0.2094
     76 H           8.7177    3.4153    0.0000 H       1  UNL1        0.0274
     77 H           8.3150    4.1941    0.0000 H       1  UNL1        0.0274
     78 H           7.5361    3.7914    0.0000 H       1  UNL1        0.0274
     79 H           6.4291    2.8950    0.0000 H       1  UNL1        0.0534
     80 H           6.6586    1.8459    0.0000 H       1  UNL1        0.0534
@<TRIPOS>BOND
     1     1    25    1
     2     1    75    1
     3     2    27    2
     4     3     4    1
     5     3     5    1
     6     3    10    1
     7     3    19    1
     8     4     6    1
     9     4    14    1
    10     4    20    1
    11     5     7    1
    12     5    12    1
    13     5    33    1
    14     6     8    1
    15     6    13    1
    16     6    34    1
    17     7     9    1
    18     7    16    1
    19     7    35    1
    20     8    11    1
    21     8    21    1
    22     8    24    1
    23     9    15    1
    24     9    18    1
    25     9    25    1
    26    10    15    1
    27    10    36    1
    28    10    37    1
    29    11    17    1
    30    11    22    1
    31    11    38    1
    32    12    13    1
    33    12    39    1
    34    12    40    1
    35    13    41    1
    36    13    42    1
    37    14    17    1
    38    14    43    1
    39    14    44    1
    40    15    45    1
    41    15    46    1
    42    16    23    1
    43    16    28    1
    44    16    47    1
    45    17    48    1
    46    17    49    1
    47    18    23    1
    48    18    50    1
    49    18    51    1
    50    19    52    1
    51    19    53    1
    52    19    54    1
    53    20    55    1
    54    20    56    1
    55    20    57    1
    56    21    26    1
    57    21    58    1
    58    21    59    1
    59    22    27    1
    60    22    29    1
    61    22    30    1
    62    23    60    1
    63    23    61    1
    64    24    62    1
    65    24    63    1
    66    24    64    1
    67    25    65    1
    68    25    66    1
    69    26    27    1
    70    26    67    1
    71    26    68    1
    72    28    31    1
    73    28    32    2
    74    29    69    1
    75    29    70    1
    76    29    71    1
    77    30    72    1
    78    30    73    1
    79    30    74    1
    80    31    76    1
    81    31    77    1
    82    31    78    1
    83    32    79    1
    84    32    80    1
