@<TRIPOS>MOLECULE
IMPHY007306
 31 33 0 0 0
SMALL
GASTEIGER

@<TRIPOS>ATOM
      1 O           6.0682   -2.3877    0.0000 O.2     1  UNL1       -0.4620
      2 O           6.0682    0.6123    0.0000 O.2     1  UNL1       -0.2864
      3 O           8.6663    2.1123    0.0000 O.3     1  UNL1       -0.5032
      4 O          10.3984   -0.8877    0.0000 O.3     1  UNL1       -0.5032
      5 O          10.3984    1.1123    0.0000 O.3     1  UNL1       -0.5009
      6 O           2.5381   -2.4118    0.0000 O.3     1  UNL1       -0.5066
      7 C           6.9343   -0.8877    0.0000 C.ar    1  UNL1        0.0645
      8 C           5.2022   -0.8877    0.0000 C.ar    1  UNL1        0.0648
      9 C           7.8003   -0.3877    0.0000 C.ar    1  UNL1       -0.0041
     10 C           6.0682   -0.3877    0.0000 C.ar    1  UNL1        0.2001
     11 C           5.2022   -1.8877    0.0000 C.ar    1  UNL1        0.1419
     12 C           6.9343   -1.8877    0.0000 C.ar    1  UNL1        0.1038
     13 C           8.6663   -0.8877    0.0000 C.ar    1  UNL1       -0.0084
     14 C           7.8003    0.6123    0.0000 C.ar    1  UNL1       -0.0084
     15 C           4.3083   -0.3530    0.0000 C.ar    1  UNL1       -0.0439
     16 C           4.3083   -2.4223    0.0000 C.ar    1  UNL1        0.0228
     17 C           8.6663    1.1123    0.0000 C.ar    1  UNL1        0.1625
     18 C           9.5323   -0.3877    0.0000 C.ar    1  UNL1        0.1625
     19 C           9.5323    0.6123    0.0000 C.ar    1  UNL1        0.2006
     20 C           3.4022   -1.9085    0.0000 C.ar    1  UNL1        0.1204
     21 C           3.4022   -0.8669    0.0000 C.ar    1  UNL1       -0.0193
     22 H           7.4712   -2.1977    0.0000 H       1  UNL1        0.1037
     23 H           8.6663   -1.5077    0.0000 H       1  UNL1        0.0661
     24 H           7.2634    0.9223    0.0000 H       1  UNL1        0.0661
     25 H           4.3154    0.2670    0.0000 H       1  UNL1        0.0627
     26 H           4.3154   -3.0423    0.0000 H       1  UNL1        0.0691
     27 H           2.8665   -0.5548    0.0000 H       1  UNL1        0.0654
     28 H           8.1294    2.4223    0.0000 H       1  UNL1        0.2923
     29 H          10.3984   -1.5077    0.0000 H       1  UNL1        0.2923
     30 H          10.9353    0.8023    0.0000 H       1  UNL1        0.2924
     31 H           2.0000   -2.1039    0.0000 H       1  UNL1        0.2921
@<TRIPOS>BOND
     1     1    11   ar
     2     1    12   ar
     3     2    10    2
     4     3    17    1
     5     3    28    1
     6     4    18    1
     7     4    29    1
     8     5    19    1
     9     5    30    1
    10     6    20    1
    11     6    31    1
    12     7     9    1
    13     7    10   ar
    14     7    12   ar
    15     8    10   ar
    16     8    11   ar
    17     8    15   ar
    18     9    13   ar
    19     9    14   ar
    20    11    16   ar
    21    12    22    1
    22    13    18   ar
    23    13    23    1
    24    14    17   ar
    25    14    24    1
    26    15    21   ar
    27    15    25    1
    28    16    20   ar
    29    16    26    1
    30    17    19   ar
    31    18    19   ar
    32    20    21   ar
    33    21    27    1
