@<TRIPOS>MOLECULE
IMPHY001036
 44 47 0 0 0
SMALL
GASTEIGER

@<TRIPOS>ATOM
      1 O           6.4779    0.2328    0.0000 O.3     1  UNL1       -0.3739
      2 O           2.0000   -0.3799    0.0000 O.2     1  UNL1       -0.2971
      3 N           5.7007    1.1828    0.0000 N.3     1  UNL1       -0.2747
      4 C           4.5772   -0.2260    0.0000 C.3     1  UNL1        0.0260
      5 C           5.4782    0.2079    0.0000 C.3     1  UNL1        0.1267
      6 C           4.4413   -1.2107    0.0000 C.3     1  UNL1       -0.0239
      7 C           3.6763    0.2079    0.0000 C.3     1  UNL1        0.0273
      8 C           4.4534    0.1974    0.0000 C.3     1  UNL1       -0.0414
      9 C           6.2665   -0.3910    0.0000 C.3     1  UNL1       -0.0069
     10 C           5.2511   -1.7801    0.0000 C.3     1  UNL1       -0.0464
     11 C           3.4630   -1.3874    0.0000 C.3     1  UNL1        0.0096
     12 C           6.1541   -1.3745    0.0000 C.3     1  UNL1       -0.0397
     13 C           2.9912   -0.5124    0.0000 C.2     1  UNL1        0.1374
     14 C           3.4538    1.1828    0.0000 C.3     1  UNL1       -0.0417
     15 C           4.4892    0.9966    0.0000 C.3     1  UNL1       -0.0395
     16 C           5.2604    1.2094    0.0000 C.3     1  UNL1        0.0015
     17 C           5.0772    1.9646    0.0000 C.3     1  UNL1        0.0015
     18 C           4.0772    1.9646    0.0000 C.3     1  UNL1       -0.0395
     19 C           6.9615   -1.9646    0.0000 C.3     1  UNL1       -0.0623
     20 H           4.2582   -2.0408    0.0000 H       1  UNL1        0.0312
     21 H           2.9105    0.5767    0.0000 H       1  UNL1        0.0384
     22 H           3.8974    0.4718    0.0000 H       1  UNL1        0.0273
     23 H           5.0689    0.2715    0.0000 H       1  UNL1        0.0273
     24 H           6.8602   -0.5697    0.0000 H       1  UNL1        0.0309
     25 H           6.5479    0.1615    0.0000 H       1  UNL1        0.0309
     26 H           4.8101   -2.2159    0.0000 H       1  UNL1        0.0271
     27 H           5.6016   -2.2915    0.0000 H       1  UNL1        0.0271
     28 H           2.8894   -1.6227    0.0000 H       1  UNL1        0.0345
     29 H           3.6367   -1.9826    0.0000 H       1  UNL1        0.0345
     30 H           6.7220   -1.1257    0.0000 H       1  UNL1        0.0300
     31 H           3.0672    1.6675    0.0000 H       1  UNL1        0.0273
     32 H           2.8952    0.9138    0.0000 H       1  UNL1        0.0273
     33 H           4.3877    1.6082    0.0000 H       1  UNL1        0.0278
     34 H           3.8704    0.9595    0.0000 H       1  UNL1        0.0278
     35 H           5.5434    1.7610    0.0000 H       1  UNL1        0.0427
     36 H           5.3251    0.5928    0.0000 H       1  UNL1        0.0427
     37 H           5.6358    2.2336    0.0000 H       1  UNL1        0.0427
     38 H           4.9393    2.5691    0.0000 H       1  UNL1        0.0427
     39 H           4.2152    2.5691    0.0000 H       1  UNL1        0.0278
     40 H           3.5186    2.2336    0.0000 H       1  UNL1        0.0278
     41 H           6.7744    0.7773    0.0000 H       1  UNL1        0.2118
     42 H           6.5956   -2.4652    0.0000 H       1  UNL1        0.0232
     43 H           7.4620   -2.3305    0.0000 H       1  UNL1        0.0232
     44 H           7.3273   -1.4641    0.0000 H       1  UNL1        0.0232
@<TRIPOS>BOND
     1     5     1    1
     2     1    41    1
     3     2    13    2
     4     3     5    1
     5     3    16    1
     6     3    17    1
     7     4     5    1
     8     4     6    1
     9     4     7    1
    10     4     8    1
    11     5     9    1
    12     6    10    1
    13     6    11    1
    14     6    20    1
    15     7    13    1
    16     7    14    1
    17     7    21    1
    18     8    15    1
    19     8    22    1
    20     8    23    1
    21     9    12    1
    22     9    24    1
    23     9    25    1
    24    10    12    1
    25    10    26    1
    26    10    27    1
    27    11    13    1
    28    11    28    1
    29    11    29    1
    30    12    19    1
    31    12    30    1
    32    14    18    1
    33    14    31    1
    34    14    32    1
    35    15    16    1
    36    15    33    1
    37    15    34    1
    38    16    35    1
    39    16    36    1
    40    17    18    1
    41    17    37    1
    42    17    38    1
    43    18    39    1
    44    18    40    1
    45    19    42    1
    46    19    43    1
    47    19    44    1
