@<TRIPOS>MOLECULE
IMPHY004141
 86 90 0 0 0
SMALL
GASTEIGER

@<TRIPOS>ATOM
      1 O           3.7320   -2.6574    0.0000 O.3     1  UNL1       -0.4610
      2 O           2.8718   -1.1541    0.0000 O.2     1  UNL1       -0.2512
      3 C           8.2591   -1.1050    0.0000 C.3     1  UNL1       -0.0194
      4 C           7.3931   -0.6051    0.0000 C.3     1  UNL1       -0.0257
      5 C           6.4831   -1.1119    0.0000 C.3     1  UNL1       -0.0249
      6 C           9.1251   -0.6051    0.0000 C.3     1  UNL1       -0.0051
      7 C           6.4750   -2.1535    0.0000 C.3     1  UNL1       -0.0268
      8 C           8.2752   -2.1466    0.0000 C.3     1  UNL1       -0.0463
      9 C           9.1251    0.3949    0.0000 C.2     1  UNL1       -0.0632
     10 C          10.0191    0.9296    0.0000 C.3     1  UNL1       -0.0111
     11 C           7.3771   -2.6743    0.0000 C.3     1  UNL1       -0.0486
     12 C           5.5396   -2.7032    0.0000 C.3     1  UNL1        0.0055
     13 C          10.9251    0.4158    0.0000 C.3     1  UNL1       -0.0253
     14 C          10.0191   -1.1397    0.0000 C.3     1  UNL1       -0.0429
     15 C           7.3931    0.3949    0.0000 C.3     1  UNL1       -0.0306
     16 C           5.5562   -0.5478    0.0000 C.3     1  UNL1       -0.0437
     17 C          10.9251   -0.6259    0.0000 C.3     1  UNL1       -0.0463
     18 C           8.9019   -1.8711    0.0000 C.3     1  UNL1       -0.0585
     19 C           8.2591    0.8949    0.0000 C.2     1  UNL1       -0.0836
     20 C           4.6000   -2.1607    0.0000 C.3     1  UNL1        0.1084
     21 C           9.9940    2.0143    0.0000 C.3     1  UNL1       -0.0343
     22 C           6.4908   -0.1119    0.0000 C.3     1  UNL1       -0.0590
     23 C           9.4672   -1.5447    0.0000 C.3     1  UNL1       -0.0553
     24 C           4.6084   -1.0758    0.0000 C.3     1  UNL1       -0.0146
     25 C          11.8689    0.9510    0.0000 C.3     1  UNL1       -0.0468
     26 C          10.9251    2.5712    0.0000 C.3     1  UNL1       -0.0407
     27 C          11.8689    2.0360    0.0000 C.3     1  UNL1       -0.0497
     28 C           5.0430   -3.5712    0.0000 C.3     1  UNL1       -0.0562
     29 C           6.0430   -3.5673    0.0000 C.3     1  UNL1       -0.0562
     30 C          11.7950   -0.0775    0.0000 C.3     1  UNL1       -0.0590
     31 C           9.1185    2.4975    0.0000 C.3     1  UNL1       -0.0616
     32 C          10.9136    3.5712    0.0000 C.3     1  UNL1       -0.0622
     33 C           2.8680   -2.1540    0.0000 C.2     1  UNL1        0.3042
     34 C           2.0000   -2.6507    0.0000 C.3     1  UNL1        0.0332
     35 H           8.1292   -0.1801    0.0000 H       1  UNL1        0.0315
     36 H           6.4783   -3.0035    0.0000 H       1  UNL1        0.0312
     37 H           8.4932   -2.7270    0.0000 H       1  UNL1        0.0271
     38 H           8.8843   -2.0311    0.0000 H       1  UNL1        0.0271
     39 H           9.2749    1.3404    0.0000 H       1  UNL1        0.0354
     40 H           6.9798   -3.1503    0.0000 H       1  UNL1        0.0268
     41 H           7.7781   -3.1472    0.0000 H       1  UNL1        0.0268
     42 H           9.6145   -1.6095    0.0000 H       1  UNL1        0.0274
     43 H          10.4127   -1.6187    0.0000 H       1  UNL1        0.0274
     44 H           7.1810    0.9776    0.0000 H       1  UNL1        0.0310
     45 H           6.7825    0.2873    0.0000 H       1  UNL1        0.0310
     46 H           5.9644   -0.0812    0.0000 H       1  UNL1        0.0272
     47 H           5.1663   -0.0658    0.0000 H       1  UNL1        0.0272
     48 H          11.1342   -1.2096    0.0000 H       1  UNL1        0.0271
     49 H          11.5360   -0.5198    0.0000 H       1  UNL1        0.0271
     50 H           8.4269   -2.2696    0.0000 H       1  UNL1        0.0235
     51 H           9.3004   -2.3460    0.0000 H       1  UNL1        0.0235
     52 H           9.3768   -1.4726    0.0000 H       1  UNL1        0.0235
     53 H           8.2591    1.5150    0.0000 H       1  UNL1        0.0572
     54 H           4.0648   -1.8476    0.0000 H       1  UNL1        0.0739
     55 H           9.9832    2.6342    0.0000 H       1  UNL1        0.0307
     56 H           7.1108   -0.1167    0.0000 H       1  UNL1        0.0235
     57 H           6.4956    0.5081    0.0000 H       1  UNL1        0.0235
     58 H           5.8708   -0.1071    0.0000 H       1  UNL1        0.0235
     59 H           8.8846   -1.7568    0.0000 H       1  UNL1        0.0238
     60 H           9.6794   -2.1273    0.0000 H       1  UNL1        0.0238
     61 H          10.0498   -1.3326    0.0000 H       1  UNL1        0.0238
     62 H           4.4038   -0.4905    0.0000 H       1  UNL1        0.0301
     63 H           3.9967   -1.1771    0.0000 H       1  UNL1        0.0301
     64 H          12.0780    0.3673    0.0000 H       1  UNL1        0.0271
     65 H          12.4798    1.0571    0.0000 H       1  UNL1        0.0271
     66 H          10.3841    2.8740    0.0000 H       1  UNL1        0.0301
     67 H          12.4798    1.9299    0.0000 H       1  UNL1        0.0268
     68 H          12.0780    2.6197    0.0000 H       1  UNL1        0.0268
     69 H           4.5048   -3.2632    0.0000 H       1  UNL1        0.0236
     70 H           4.7350   -4.1093    0.0000 H       1  UNL1        0.0236
     71 H           5.5811   -3.8791    0.0000 H       1  UNL1        0.0236
     72 H           5.5072   -3.8794    0.0000 H       1  UNL1        0.0236
     73 H           6.3550   -4.1030    0.0000 H       1  UNL1        0.0236
     74 H           6.5787   -3.2553    0.0000 H       1  UNL1        0.0236
     75 H          11.4891   -0.6169    0.0000 H       1  UNL1        0.0235
     76 H          12.3343   -0.3834    0.0000 H       1  UNL1        0.0235
     77 H          12.1008    0.4618    0.0000 H       1  UNL1        0.0235
     78 H           9.4181    3.0403    0.0000 H       1  UNL1        0.0233
     79 H           8.5757    2.7971    0.0000 H       1  UNL1        0.0233
     80 H           8.8189    1.9547    0.0000 H       1  UNL1        0.0233
     81 H          11.5335    3.5783    0.0000 H       1  UNL1        0.0233
     82 H          10.9064    4.1911    0.0000 H       1  UNL1        0.0233
     83 H          10.2936    3.5640    0.0000 H       1  UNL1        0.0233
     84 H           1.6921   -2.1126    0.0000 H       1  UNL1        0.0342
     85 H           1.4619   -2.9586    0.0000 H       1  UNL1        0.0342
     86 H           2.3079   -3.1888    0.0000 H       1  UNL1        0.0342
@<TRIPOS>BOND
     1    20     1    1
     2     1    33    1
     3     2    33    2
     4     3     4    1
     5     3     6    1
     6     3     8    1
     7     3    18    1
     8     4     5    1
     9     4    15    1
    10     4    35    1
    11     5     7    1
    12     5    16    1
    13     5    22    1
    14     6     9    1
    15     6    14    1
    16     6    23    1
    17     7    11    1
    18     7    12    1
    19     7    36    1
    20     8    11    1
    21     8    37    1
    22     8    38    1
    23     9    10    1
    24     9    19    2
    25    10    13    1
    26    10    21    1
    27    10    39    1
    28    11    40    1
    29    11    41    1
    30    12    20    1
    31    12    28    1
    32    12    29    1
    33    13    17    1
    34    13    25    1
    35    13    30    1
    36    14    17    1
    37    14    42    1
    38    14    43    1
    39    15    19    1
    40    15    44    1
    41    15    45    1
    42    16    24    1
    43    16    46    1
    44    16    47    1
    45    17    48    1
    46    17    49    1
    47    18    50    1
    48    18    51    1
    49    18    52    1
    50    19    53    1
    51    20    24    1
    52    20    54    1
    53    21    26    1
    54    21    31    1
    55    21    55    1
    56    22    56    1
    57    22    57    1
    58    22    58    1
    59    23    59    1
    60    23    60    1
    61    23    61    1
    62    24    62    1
    63    24    63    1
    64    25    27    1
    65    25    64    1
    66    25    65    1
    67    26    27    1
    68    26    32    1
    69    26    66    1
    70    27    67    1
    71    27    68    1
    72    28    69    1
    73    28    70    1
    74    28    71    1
    75    29    72    1
    76    29    73    1
    77    29    74    1
    78    30    75    1
    79    30    76    1
    80    30    77    1
    81    31    78    1
    82    31    79    1
    83    31    80    1
    84    32    81    1
    85    32    82    1
    86    32    83    1
    87    33    34    1
    88    34    84    1
    89    34    85    1
    90    34    86    1
