@<TRIPOS>MOLECULE
IMPHY007404
 40 41 0 0 0
SMALL
GASTEIGER

@<TRIPOS>ATOM
      1 O           6.0812   -1.7447    0.0000 O.3     1  UNL1       -0.4567
      2 O           7.6648   -0.9400    0.0000 O.2     1  UNL1       -0.2505
      3 O           3.7450    0.4997    0.0000 O.3     1  UNL1       -0.3872
      4 C           5.1350   -0.4400    0.0000 C.3     1  UNL1        0.0128
      5 C           6.0812   -0.1353    0.0000 C.3     1  UNL1        0.0601
      6 C           5.1350   -1.4400    0.0000 C.3     1  UNL1        0.1251
      7 C           4.2690    0.0600    0.0000 C.3     1  UNL1       -0.0421
      8 C           4.2690    1.0600    0.0000 C.3     1  UNL1       -0.0316
      9 C           6.6648   -0.9400    0.0000 C.2     1  UNL1        0.3109
     10 C           4.2690   -1.9400    0.0000 C.2     1  UNL1       -0.0423
     11 C           6.3919    0.8153    0.0000 C.3     1  UNL1       -0.0519
     12 C           3.4030   -1.4400    0.0000 C.2     1  UNL1       -0.0447
     13 C           3.4030    1.5600    0.0000 C.2     1  UNL1       -0.0764
     14 C           3.4030   -0.4400    0.0000 C.3     1  UNL1        0.0795
     15 C           2.5369    0.0600    0.0000 C.3     1  UNL1       -0.0045
     16 C           2.5369    1.0600    0.0000 C.2     1  UNL1       -0.0823
     17 C           2.5369   -1.9400    0.0000 C.3     1  UNL1       -0.0412
     18 C           3.4030    2.5600    0.0000 C.3     1  UNL1       -0.0438
     19 H           5.2250    0.4052    0.0000 H       1  UNL1        0.0348
     20 H           5.6438    0.3041    0.0000 H       1  UNL1        0.0415
     21 H           5.2250   -2.2852    0.0000 H       1  UNL1        0.0782
     22 H           3.6584    0.1677    0.0000 H       1  UNL1        0.0272
     23 H           4.0569   -0.5226    0.0000 H       1  UNL1        0.0272
     24 H           4.8796    0.9523    0.0000 H       1  UNL1        0.0310
     25 H           4.4810    1.6426    0.0000 H       1  UNL1        0.0310
     26 H           4.2690   -2.5600    0.0000 H       1  UNL1        0.0609
     27 H           6.9812    0.6226    0.0000 H       1  UNL1        0.0238
     28 H           6.5845    1.4046    0.0000 H       1  UNL1        0.0238
     29 H           5.8026    1.0079    0.0000 H       1  UNL1        0.0238
     30 H           4.0135   -0.5477    0.0000 H       1  UNL1        0.0643
     31 H           1.9264    0.1677    0.0000 H       1  UNL1        0.0336
     32 H           2.3249   -0.5226    0.0000 H       1  UNL1        0.0336
     33 H           2.0000    1.3700    0.0000 H       1  UNL1        0.0572
     34 H           2.2269   -1.4031    0.0000 H       1  UNL1        0.0275
     35 H           2.0000   -2.2500    0.0000 H       1  UNL1        0.0275
     36 H           2.8469   -2.4769    0.0000 H       1  UNL1        0.0275
     37 H           4.0230    2.5600    0.0000 H       1  UNL1        0.0274
     38 H           3.4030    3.1800    0.0000 H       1  UNL1        0.0274
     39 H           2.7830    2.5600    0.0000 H       1  UNL1        0.0274
     40 H           3.1624    0.7117    0.0000 H       1  UNL1        0.2102
@<TRIPOS>BOND
     1     1     6    1
     2     1     9    1
     3     2     9    2
     4    14     3    1
     5     3    40    1
     6     4     5    1
     7     4     6    1
     8     4     7    1
     9     4    19    1
    10     5     9    1
    11     5    11    1
    12     5    20    1
    13     6    10    1
    14     6    21    1
    15     7     8    1
    16     7    22    1
    17     7    23    1
    18     8    13    1
    19     8    24    1
    20     8    25    1
    21    10    12    2
    22    10    26    1
    23    11    27    1
    24    11    28    1
    25    11    29    1
    26    12    14    1
    27    12    17    1
    28    13    16    2
    29    13    18    1
    30    14    15    1
    31    14    30    1
    32    15    16    1
    33    15    31    1
    34    15    32    1
    35    16    33    1
    36    17    34    1
    37    17    35    1
    38    17    36    1
    39    18    37    1
    40    18    38    1
    41    18    39    1
