@<TRIPOS>MOLECULE
IMPHY010105
 37 41 0 0 0
SMALL
GASTEIGER

@<TRIPOS>ATOM
      1 C           0.0500   -0.7250    0.0000 C.3     1  UNL1        0.1578
      2 C          -0.2833   -0.2500    0.0000 C.3     1  UNL1        0.1826
      3 O          -0.4417   -0.7250    0.0000 O.3     1  UNL1       -0.3495
      4 C           0.6292   -0.5583    0.0000 C.3     1  UNL1        0.1078
      5 C           0.0500    0.2417    0.0000 C.3     1  UNL1        0.2027
      6 C           1.1458   -2.5250    0.0000 C.3     1  UNL1        0.2720
      7 C           0.6292    0.0458    0.0000 C.3     1  UNL1        0.0764
      8 C           1.1458   -0.8583    0.0000 C.3     1  UNL1        0.2922
      9 C           0.7458   -3.0333    0.0000 C.3     1  UNL1        0.2406
     10 C           0.0000   -3.0333    0.0000 C.3     1  UNL1        0.2198
     11 O           0.7458   -2.0375    0.0000 O.3     1  UNL1       -0.3256
     12 O           1.1458   -1.5083    0.0000 O.3     1  UNL1       -0.2933
     13 O          -0.1542    0.8000    0.0000 O.3     1  UNL1       -0.4462
     14 C          -0.3792   -2.5375    0.0000 C.3     1  UNL1        0.2144
     15 C          -0.7417    0.8875    0.0000 C.2     1  UNL1        0.3413
     16 C           0.0000   -2.0375    0.0000 C.3     1  UNL1        0.1835
     17 C          -0.9417    1.4458    0.0000 C.ar    1  UNL1        0.0789
     18 O           1.6750   -0.5583    0.0000 O.2     1  UNL1       -0.4496
     19 C          -0.5542    1.9042    0.0000 C.ar    1  UNL1        0.0465
     20 C          -0.7583    2.4625    0.0000 C.ar    1  UNL1        0.1726
     21 C           1.1458    0.3500    0.0000 C.2     1  UNL1        0.0176
     22 C           1.6750    0.0458    0.0000 C.2     1  UNL1        0.1706
     23 C          -0.0750   -1.1667    0.0000 C.3     1  UNL1        0.2117
     24 C          -1.3417    2.5875    0.0000 C.ar    1  UNL1        0.1724
     25 O          -1.1333    0.4292    0.0000 O.2     1  UNL1       -0.2449
     26 C          -1.5208    1.5625    0.0000 C.ar    1  UNL1        0.0098
     27 C          -1.7208    2.1208    0.0000 C.ar    1  UNL1        0.0403
     28 O           0.7458   -3.4833    0.0000 O.3     1  UNL1       -0.2149
     29 O           0.0042   -2.5792    0.0000 O.3     1  UNL1       -0.2174
     30 O          -0.3792   -3.1250    0.0000 O.3     1  UNL1       -0.2176
     31 O          -0.3583    2.9125    0.0000 O.3     1  UNL1       -0.4684
     32 C           0.0042   -1.6542    0.0000 C.3     1  UNL1        0.2142
     33 O          -1.5417    3.1375    0.0000 O.3     1  UNL1       -0.4684
     34 O           0.2917   -1.3583    0.0000 O.3     1  UNL1       -0.2177
     35 O          -0.4625   -1.4792    0.0000 O.3     1  UNL1       -0.2176
     36 C           0.2083    2.7917    0.0000 C.3     1  UNL1        0.2526
     37 C          -1.1708    3.5958    0.0000 C.3     1  UNL1        0.2526
@<TRIPOS>BOND
     1     1     3    1
     2     1    23    1
     3     2     1    1
     4     2     3    1
     5     4     1    1
     6     5     2    1
     7     6    12    1
     8     7     4    1
     9     7     5    1
    10     8     4    1
    11     9     6    1
    12     9    28    1
    13    10     9    1
    14    10    29    1
    15    11     6    1
    16    12     8    1
    17    13     5    1
    18    14    10    1
    19    14    30    1
    20    14    16    1
    21    15    13    1
    22    16    11    1
    23    16    32    1
    24    17    15    1
    25    18     8    1
    26    19    17   ar
    27    20    19   ar
    28    21     7    1
    29    22    18    1
    30    22    21    2
    31    24    20   ar
    32    24    27   ar
    33    25    15    2
    34    26    17   ar
    35    27    26   ar
    36    31    20    1
    37    33    24    1
    38    34    23    1
    39    35    32    1
    40    36    31    1
    41    37    33    1
