@<TRIPOS>MOLECULE
IMPHY000459
 22 23 0 0 0
SMALL
GASTEIGER

@<TRIPOS>ATOM
      1 C           8.6630    1.5426    0.0000 C.ar    1  UNL1       -0.0219
      2 C           7.8031    2.0353    0.0000 C.3     1  UNL1        0.0290
      3 C           9.5293    2.0514    0.0000 C.ar    1  UNL1       -0.0010
      4 C           8.6694    0.5443    0.0000 C.ar    1  UNL1       -0.0010
      5 C           6.9368    1.5362    0.0000 C.3     1  UNL1        0.0380
      6 C          10.3956    1.5523    0.0000 C.ar    1  UNL1        0.0417
      7 C           9.5390    0.0483    0.0000 C.ar    1  UNL1        0.0417
      8 C           6.0770    2.0321    0.0000 C.3     1  UNL1        0.1597
      9 C          10.4020    0.5539    0.0000 C.ar    1  UNL1        0.1957
     10 C           5.1946    1.5233    0.0000 C.3     1  UNL1        0.0973
     11 O           6.0770    3.0337    0.0000 O.3     1  UNL1       -0.2227
     12 O          11.2716    0.0547    0.0000 O.3     1  UNL1       -0.2866
     13 C           4.3508    2.0096    0.0000 C.2     1  UNL1        0.1535
     14 C           3.4620    1.4975    0.0000 C.3     1  UNL1        0.0693
     15 O           4.3508    3.0111    0.0000 O.2     1  UNL1       -0.2960
     16 C           2.5957    1.9967    0.0000 C.3     1  UNL1        0.0341
     17 C           1.7294    1.4975    0.0000 C.ar    1  UNL1       -0.0218
     18 C           0.8631    1.9967    0.0000 C.ar    1  UNL1       -0.0043
     19 C           1.7294    0.4992    0.0000 C.ar    1  UNL1       -0.0043
     20 C           0.0000    1.4975    0.0000 C.ar    1  UNL1       -0.0003
     21 C           0.8631    0.0000    0.0000 C.ar    1  UNL1       -0.0003
     22 C           0.0000    0.4992    0.0000 C.ar    1  UNL1       -0.0000
@<TRIPOS>BOND
     1     1     2    1
     2     1     3   ar
     3     1     4   ar
     4     2     5    1
     5     3     6   ar
     6     4     7   ar
     7     6     9   ar
     8     7     9   ar
     9     8     5    1
    10     8    10    1
    11     8    11    1
    12     9    12    1
    13    10    13    1
    14    13    14    1
    15    13    15    2
    16    14    16    1
    17    16    17    1
    18    17    18   ar
    19    17    19   ar
    20    18    20   ar
    21    19    21   ar
    22    20    22   ar
    23    21    22   ar
