@<TRIPOS>MOLECULE
IMPHY005556
 21 21 0 0 0
SMALL
GASTEIGER

@<TRIPOS>ATOM
      1 O           2.5369   -0.5000    0.0000 O.3     1  UNL1       -0.5029
      2 O           2.5369   -2.5000    0.0000 O.3     1  UNL1       -0.5033
      3 O           6.0010    2.5000    0.0000 O.3     1  UNL1       -0.4775
      4 O           4.2690    2.5000    0.0000 O.2     1  UNL1       -0.2458
      5 C           4.2690   -0.5000    0.0000 C.ar    1  UNL1        0.0203
      6 C           3.4030   -1.0000    0.0000 C.ar    1  UNL1        0.1655
      7 C           5.1350   -1.0000    0.0000 C.ar    1  UNL1       -0.0509
      8 C           3.4030   -2.0000    0.0000 C.ar    1  UNL1        0.1588
      9 C           5.1350   -2.0000    0.0000 C.ar    1  UNL1       -0.0575
     10 C           4.2690   -2.5000    0.0000 C.ar    1  UNL1       -0.0165
     11 C           4.2690    0.5000    0.0000 C.2     1  UNL1       -0.0442
     12 C           5.1350    1.0000    0.0000 C.2     1  UNL1        0.0230
     13 C           5.1350    2.0000    0.0000 C.2     1  UNL1        0.3296
     14 H           5.6720   -0.6900    0.0000 H       1  UNL1        0.0625
     15 H           5.6720   -2.3100    0.0000 H       1  UNL1        0.0619
     16 H           4.2690   -3.1200    0.0000 H       1  UNL1        0.0655
     17 H           3.7320    0.8100    0.0000 H       1  UNL1        0.0627
     18 H           5.6720    0.6900    0.0000 H       1  UNL1        0.0689
     19 H           2.0000   -0.8100    0.0000 H       1  UNL1        0.2923
     20 H           2.5369   -3.1200    0.0000 H       1  UNL1        0.2923
     21 H           6.0010    3.1200    0.0000 H       1  UNL1        0.2954
@<TRIPOS>BOND
     1     1     6    1
     2     1    19    1
     3     2     8    1
     4     2    20    1
     5     3    13    1
     6     3    21    1
     7     4    13    2
     8     5     6   ar
     9     5     7   ar
    10     5    11    1
    11     6     8   ar
    12     7     9   ar
    13     7    14    1
    14     8    10   ar
    15     9    10   ar
    16     9    15    1
    17    10    16    1
    18    11    12    2
    19    11    17    1
    20    12    13    1
    21    12    18    1
