@<TRIPOS>MOLECULE
IMPHY001536
 80 83 0 0 0
SMALL
GASTEIGER

@<TRIPOS>ATOM
      1 O          11.5587    2.8146    0.0000 O.3     1  UNL1       -0.4802
      2 O          11.5387    1.0827    0.0000 O.2     1  UNL1       -0.2504
      3 O           4.6782   -3.5032    0.0000 O.3     1  UNL1       -0.4806
      4 O           3.1682   -2.6546    0.0000 O.2     1  UNL1       -0.2510
      5 C           5.5320    1.4953    0.0000 C.3     1  UNL1       -0.0194
      6 C           6.3981    1.9953    0.0000 C.3     1  UNL1       -0.0051
      7 C           5.5320    0.4953    0.0000 C.3     1  UNL1       -0.0255
      8 C           4.6381   -0.0394    0.0000 C.3     1  UNL1       -0.0215
      9 C           8.1741    2.0022    0.0000 C.3     1  UNL1       -0.0130
     10 C           7.2641    1.4953    0.0000 C.2     1  UNL1       -0.0634
     11 C           8.1821    3.0438    0.0000 C.3     1  UNL1       -0.0255
     12 C           6.3820    3.0368    0.0000 C.3     1  UNL1       -0.0429
     13 C           4.6381    2.0300    0.0000 C.3     1  UNL1       -0.0460
     14 C           7.2800    3.5646    0.0000 C.3     1  UNL1       -0.0463
     15 C           3.7320    0.4745    0.0000 C.3     1  UNL1       -0.0147
     16 C           6.3981   -0.0047    0.0000 C.3     1  UNL1       -0.0306
     17 C           3.7320    1.5161    0.0000 C.3     1  UNL1       -0.0455
     18 C           5.1900    2.4350    0.0000 C.3     1  UNL1       -0.0585
     19 C           9.1009    1.4381    0.0000 C.3     1  UNL1       -0.0305
     20 C           7.2641    0.4953    0.0000 C.2     1  UNL1       -0.0836
     21 C           5.7553    2.7613    0.0000 C.3     1  UNL1       -0.0553
     22 C           9.1176    3.5935    0.0000 C.3     1  UNL1       -0.0461
     23 C          10.0488    1.9660    0.0000 C.3     1  UNL1        0.0654
     24 C           4.1482   -0.9111    0.0000 C.3     1  UNL1       -0.0367
     25 C          10.0572    3.0510    0.0000 C.3     1  UNL1       -0.0370
     26 C           5.1481   -0.8995    0.0000 C.3     1  UNL1       -0.0587
     27 C           8.1898    4.0437    0.0000 C.3     1  UNL1       -0.0590
     28 C           2.8680   -0.0288    0.0000 C.2     1  UNL1       -0.0761
     29 C           4.6581   -1.7713    0.0000 C.3     1  UNL1        0.0453
     30 C          10.5388    1.0943    0.0000 C.3     1  UNL1       -0.0494
     31 C          11.0488    1.9544    0.0000 C.2     1  UNL1        0.3107
     32 C           2.0000    0.4678    0.0000 C.3     1  UNL1       -0.0438
     33 C           2.8718   -1.0288    0.0000 C.2     1  UNL1       -0.0994
     34 C           4.1682   -2.6430    0.0000 C.2     1  UNL1        0.3047
     35 H           5.5386   -0.3547    0.0000 H       1  UNL1        0.0315
     36 H           8.1577    1.1523    0.0000 H       1  UNL1        0.0351
     37 H           6.1640    3.6172    0.0000 H       1  UNL1        0.0274
     38 H           5.7729    2.9213    0.0000 H       1  UNL1        0.0274
     39 H           5.0427    2.4998    0.0000 H       1  UNL1        0.0271
     40 H           4.2445    2.5090    0.0000 H       1  UNL1        0.0271
     41 H           7.6774    4.0405    0.0000 H       1  UNL1        0.0271
     42 H           6.8791    4.0374    0.0000 H       1  UNL1        0.0271
     43 H           3.7356   -0.1455    0.0000 H       1  UNL1        0.0351
     44 H           5.9995   -0.4796    0.0000 H       1  UNL1        0.0310
     45 H           6.7966   -0.4796    0.0000 H       1  UNL1        0.0310
     46 H           3.5230    2.0998    0.0000 H       1  UNL1        0.0271
     47 H           3.1212    1.4100    0.0000 H       1  UNL1        0.0271
     48 H           5.7726    2.6470    0.0000 H       1  UNL1        0.0235
     49 H           4.9780    3.0176    0.0000 H       1  UNL1        0.0235
     50 H           4.6074    2.2229    0.0000 H       1  UNL1        0.0235
     51 H           8.6927    0.9714    0.0000 H       1  UNL1        0.0282
     52 H           9.4909    0.9560    0.0000 H       1  UNL1        0.0282
     53 H           7.8010    0.1853    0.0000 H       1  UNL1        0.0572
     54 H           6.2302    3.1599    0.0000 H       1  UNL1        0.0238
     55 H           5.3568    3.2363    0.0000 H       1  UNL1        0.0238
     56 H           5.2803    2.3628    0.0000 H       1  UNL1        0.0238
     57 H           9.5149    4.0694    0.0000 H       1  UNL1        0.0271
     58 H           8.7166    4.0664    0.0000 H       1  UNL1        0.0271
     59 H           3.6686   -0.5181    0.0000 H       1  UNL1        0.0276
     60 H           3.6778   -1.3151    0.0000 H       1  UNL1        0.0276
     61 H          10.6672    2.9402    0.0000 H       1  UNL1        0.0276
     62 H          10.2707    3.6330    0.0000 H       1  UNL1        0.0276
     63 H           4.6148   -1.2157    0.0000 H       1  UNL1        0.0235
     64 H           5.4643   -1.4329    0.0000 H       1  UNL1        0.0235
     65 H           5.6814   -0.5834    0.0000 H       1  UNL1        0.0235
     66 H           8.8098    4.0389    0.0000 H       1  UNL1        0.0235
     67 H           8.1946    4.6637    0.0000 H       1  UNL1        0.0235
     68 H           7.5699    4.0485    0.0000 H       1  UNL1        0.0235
     69 H           5.1377   -2.1643    0.0000 H       1  UNL1        0.0378
     70 H           5.1284   -1.3673    0.0000 H       1  UNL1        0.0378
     71 H           9.9983    0.7905    0.0000 H       1  UNL1        0.0240
     72 H          10.8425    0.5538    0.0000 H       1  UNL1        0.0240
     73 H          11.0793    1.3980    0.0000 H       1  UNL1        0.0240
     74 H           2.3079    1.0059    0.0000 H       1  UNL1        0.0274
     75 H           1.4619    0.7757    0.0000 H       1  UNL1        0.0274
     76 H           1.6921   -0.0703    0.0000 H       1  UNL1        0.0274
     77 H           2.3361   -1.3409    0.0000 H       1  UNL1        0.0534
     78 H           3.4099   -1.3368    0.0000 H       1  UNL1        0.0534
     79 H          12.1787    2.8075    0.0000 H       1  UNL1        0.2951
     80 H           4.3744   -4.0437    0.0000 H       1  UNL1        0.2951
@<TRIPOS>BOND
     1     1    31    1
     2     1    79    1
     3     2    31    2
     4     3    34    1
     5     3    80    1
     6     4    34    2
     7     5     6    1
     8     5     7    1
     9     5    13    1
    10     5    18    1
    11     6    10    1
    12     6    12    1
    13     6    21    1
    14     7     8    1
    15     7    16    1
    16     7    35    1
    17     8    15    1
    18     8    24    1
    19     8    26    1
    20     9    10    1
    21     9    11    1
    22     9    19    1
    23     9    36    1
    24    10    20    2
    25    11    14    1
    26    11    22    1
    27    11    27    1
    28    12    14    1
    29    12    37    1
    30    12    38    1
    31    13    17    1
    32    13    39    1
    33    13    40    1
    34    14    41    1
    35    14    42    1
    36    15    17    1
    37    15    28    1
    38    15    43    1
    39    16    20    1
    40    16    44    1
    41    16    45    1
    42    17    46    1
    43    17    47    1
    44    18    48    1
    45    18    49    1
    46    18    50    1
    47    19    23    1
    48    19    51    1
    49    19    52    1
    50    20    53    1
    51    21    54    1
    52    21    55    1
    53    21    56    1
    54    22    25    1
    55    22    57    1
    56    22    58    1
    57    23    25    1
    58    23    30    1
    59    23    31    1
    60    24    29    1
    61    24    59    1
    62    24    60    1
    63    25    61    1
    64    25    62    1
    65    26    63    1
    66    26    64    1
    67    26    65    1
    68    27    66    1
    69    27    67    1
    70    27    68    1
    71    28    32    1
    72    28    33    2
    73    29    34    1
    74    29    69    1
    75    29    70    1
    76    30    71    1
    77    30    72    1
    78    30    73    1
    79    32    74    1
    80    32    75    1
    81    32    76    1
    82    33    77    1
    83    33    78    1
