@<TRIPOS>MOLECULE
IMPHY002137
 24 25 0 0 0
SMALL
GASTEIGER

@<TRIPOS>ATOM
      1 O           2.0000    1.8176    0.0000 O.3     1  UNL1       -0.4771
      2 O           3.7320    1.8176    0.0000 O.2     1  UNL1       -0.2451
      3 N           2.0000   -1.1824    0.0000 N.ar    1  UNL1       -0.2622
      4 C           4.6783   -1.4871    0.0000 C.3     1  UNL1       -0.0167
      5 C           5.2619   -0.6824    0.0000 C.3     1  UNL1       -0.0424
      6 C           4.6783    0.1224    0.0000 C.3     1  UNL1       -0.0260
      7 C           3.7320   -1.1824    0.0000 C.ar    1  UNL1       -0.0225
      8 C           3.7320   -0.1824    0.0000 C.ar    1  UNL1       -0.0271
      9 C           4.9889   -2.4376    0.0000 C.3     1  UNL1       -0.0583
     10 C           2.8660    0.3176    0.0000 C.ar    1  UNL1        0.0803
     11 C           2.8660   -1.6824    0.0000 C.ar    1  UNL1        0.0313
     12 C           2.0000   -0.1824    0.0000 C.ar    1  UNL1        0.0418
     13 C           2.8660    1.3176    0.0000 C.2     1  UNL1        0.3386
     14 H           5.2908   -1.5833    0.0000 H       1  UNL1        0.0347
     15 H           5.7227   -1.0971    0.0000 H       1  UNL1        0.0274
     16 H           5.7227   -0.2676    0.0000 H       1  UNL1        0.0274
     17 H           5.2156    0.4316    0.0000 H       1  UNL1        0.0314
     18 H           4.4272    0.6893    0.0000 H       1  UNL1        0.0314
     19 H           4.3996   -2.6302    0.0000 H       1  UNL1        0.0236
     20 H           5.1815   -3.0269    0.0000 H       1  UNL1        0.0236
     21 H           5.5783   -2.2450    0.0000 H       1  UNL1        0.0236
     22 H           2.8660   -2.3024    0.0000 H       1  UNL1        0.0832
     23 H           1.4631    0.1276    0.0000 H       1  UNL1        0.0838
     24 H           2.0000    2.4376    0.0000 H       1  UNL1        0.2954
@<TRIPOS>BOND
     1     1    13    1
     2     1    24    1
     3     2    13    2
     4     3    11   ar
     5     3    12   ar
     6     4     5    1
     7     4     7    1
     8     4     9    1
     9     4    14    1
    10     5     6    1
    11     5    15    1
    12     5    16    1
    13     6     8    1
    14     6    17    1
    15     6    18    1
    16     7     8   ar
    17     7    11   ar
    18     8    10   ar
    19     9    19    1
    20     9    20    1
    21     9    21    1
    22    10    12   ar
    23    10    13    1
    24    11    22    1
    25    12    23    1
