@<TRIPOS>MOLECULE
IMPHY008218
 22 24 0 0 0
SMALL
GASTEIGER

@<TRIPOS>ATOM
      1 S           4.4026    1.5757    0.0000 S.2     1  UNL1       -0.0756
      2 N           4.6783   -1.7944    0.0000 N.ar    1  UNL1       -0.3600
      3 N           5.9405    1.0730    0.0000 N.ar    1  UNL1       -0.2473
      4 C           3.7320   -0.4896    0.0000 C.ar    1  UNL1        0.0093
      5 C           4.6783   -0.1849    0.0000 C.ar    1  UNL1        0.0321
      6 C           3.7320   -1.4896    0.0000 C.ar    1  UNL1        0.0471
      7 C           5.2619   -0.9896    0.0000 C.ar    1  UNL1        0.0124
      8 C           2.8660    0.0104    0.0000 C.ar    1  UNL1       -0.0519
      9 C           4.9889    0.7656    0.0000 C.ar    1  UNL1        0.1102
     10 C           2.8660   -1.9896    0.0000 C.ar    1  UNL1       -0.0378
     11 C           2.0000   -0.4896    0.0000 C.ar    1  UNL1       -0.0611
     12 C           2.0000   -1.4896    0.0000 C.ar    1  UNL1       -0.0598
     13 C           4.9917    2.3837    0.0000 C.ar    1  UNL1       -0.0042
     14 C           5.9422    2.0730    0.0000 C.ar    1  UNL1        0.0354
     15 H           5.8819   -0.9896    0.0000 H       1  UNL1        0.0814
     16 H           4.8709   -2.3837    0.0000 H       1  UNL1        0.1654
     17 H           2.8660    0.6304    0.0000 H       1  UNL1        0.0624
     18 H           2.8660   -2.6096    0.0000 H       1  UNL1        0.0638
     19 H           1.4631   -0.1796    0.0000 H       1  UNL1        0.0618
     20 H           1.4631   -1.7996    0.0000 H       1  UNL1        0.0618
     21 H           4.8012    2.9737    0.0000 H       1  UNL1        0.0709
     22 H           6.4445    2.4366    0.0000 H       1  UNL1        0.0835
@<TRIPOS>BOND
     1     1     9   ar
     2     1    13   ar
     3     2     6   ar
     4     2     7   ar
     5     2    16    1
     6     3     9   ar
     7     3    14   ar
     8     4     5   ar
     9     4     6   ar
    10     4     8   ar
    11     5     7   ar
    12     5     9    1
    13     6    10   ar
    14     7    15    1
    15     8    11   ar
    16     8    17    1
    17    10    12   ar
    18    10    18    1
    19    11    12   ar
    20    11    19    1
    21    12    20    1
    22    13    14   ar
    23    13    21    1
    24    14    22    1
