@<TRIPOS>MOLECULE
IMPHY000790
 66 72 0 0 0
SMALL
GASTEIGER

@<TRIPOS>ATOM
      1 O           8.3789    0.8644    0.0000 O.3     1  UNL1       -0.4444
      2 O          11.8438    0.9779    0.0000 O.3     1  UNL1       -0.4444
      3 O           9.1755    3.0242    0.0000 O.3     1  UNL1       -0.3827
      4 O           6.0970   -2.0380    0.0000 O.3     1  UNL1       -0.4811
      5 O           9.7111   -2.2457    0.0000 O.3     1  UNL1       -0.5060
      6 O           6.8466   -4.7243    0.0000 O.3     1  UNL1       -0.3875
      7 O          10.7877   -2.2365    0.0000 O.3     1  UNL1       -0.5062
      8 O          14.2860   -1.6962    0.0000 O.3     1  UNL1       -0.5065
      9 O          12.8616    3.6250    0.0000 O.3     1  UNL1       -0.5033
     10 O          11.4474    5.0393    0.0000 O.3     1  UNL1       -0.5033
     11 O           2.5583   -2.8648    0.0000 O.3     1  UNL1       -0.5033
     12 O           2.4111   -4.8594    0.0000 O.3     1  UNL1       -0.5033
     13 C          10.1533    0.2096    0.0000 C.3     1  UNL1        0.0567
     14 C           9.6755    2.1582    0.0000 C.3     1  UNL1        0.1477
     15 C          10.4121    1.1756    0.0000 C.3     1  UNL1        0.3074
     16 C           8.9323   -0.6560    0.0000 C.ar    1  UNL1        0.0466
     17 C          11.4250   -0.5850    0.0000 C.ar    1  UNL1        0.0463
     18 C           8.1032   -0.0968    0.0000 C.ar    1  UNL1        0.1365
     19 C          12.2021    0.0443    0.0000 C.ar    1  UNL1        0.1365
     20 C           8.8756   -1.6961    0.0000 C.ar    1  UNL1        0.1309
     21 C          10.6709    2.1415    0.0000 C.ar    1  UNL1        0.0424
     22 C           7.9430   -2.1599    0.0000 C.ar    1  UNL1        0.0387
     23 C           7.8840   -3.2433    0.0000 C.3     1  UNL1        0.0092
     24 C           7.0794   -1.5775    0.0000 C.ar    1  UNL1        0.1317
     25 C           7.1601   -0.5390    0.0000 C.ar    1  UNL1        0.0228
     26 C           6.9125   -3.7265    0.0000 C.3     1  UNL1        0.1004
     27 C           6.0130   -3.1197    0.0000 C.3     1  UNL1        0.1513
     28 C          11.5721   -1.6162    0.0000 C.ar    1  UNL1        0.1276
     29 C          13.1802   -0.3139    0.0000 C.ar    1  UNL1        0.0222
     30 C          11.6369    2.4003    0.0000 C.ar    1  UNL1       -0.0059
     31 C           9.9638    2.8486    0.0000 C.ar    1  UNL1       -0.0475
     32 C          12.5416   -1.9970    0.0000 C.ar    1  UNL1        0.0218
     33 C          13.3511   -1.3414    0.0000 C.ar    1  UNL1        0.1238
     34 C           5.1125   -3.5546    0.0000 C.ar    1  UNL1       -0.0012
     35 C          11.8957    3.3662    0.0000 C.ar    1  UNL1        0.1587
     36 C          10.2227    3.8145    0.0000 C.ar    1  UNL1       -0.0160
     37 C          11.1886    4.0733    0.0000 C.ar    1  UNL1        0.1582
     38 C           4.2857   -2.9923    0.0000 C.ar    1  UNL1       -0.0098
     39 C           5.0389   -4.5519    0.0000 C.ar    1  UNL1       -0.0513
     40 C           3.3852   -3.4272    0.0000 C.ar    1  UNL1        0.1586
     41 C           4.1384   -4.9868    0.0000 C.ar    1  UNL1       -0.0162
     42 C           3.3116   -4.4244    0.0000 C.ar    1  UNL1        0.1582
     43 H           9.9333   -0.6114    0.0000 H       1  UNL1        0.0430
     44 H          10.1929    2.4997    0.0000 H       1  UNL1        0.0685
     45 H           8.0610   -3.8375    0.0000 H       1  UNL1        0.0342
     46 H           8.4997   -3.1706    0.0000 H       1  UNL1        0.0342
     47 H           6.6501   -0.1863    0.0000 H       1  UNL1        0.0691
     48 H           6.3558   -3.9993    0.0000 H       1  UNL1        0.0637
     49 H           5.9686   -3.7382    0.0000 H       1  UNL1        0.0811
     50 H           8.5555    3.0242    0.0000 H       1  UNL1        0.2102
     51 H          13.6575    0.0818    0.0000 H       1  UNL1        0.0691
     52 H          12.0753    1.9619    0.0000 H       1  UNL1        0.0660
     53 H           9.3650    2.6881    0.0000 H       1  UNL1        0.0624
     54 H          12.6362   -2.6097    0.0000 H       1  UNL1        0.0691
     55 H           9.6750   -2.8646    0.0000 H       1  UNL1        0.2922
     56 H           9.7842    4.2529    0.0000 H       1  UNL1        0.0655
     57 H           7.3619   -5.0690    0.0000 H       1  UNL1        0.2100
     58 H          10.8776   -2.8499    0.0000 H       1  UNL1        0.2921
     59 H           4.3313   -2.3739    0.0000 H       1  UNL1        0.0659
     60 H           5.5516   -4.9006    0.0000 H       1  UNL1        0.0623
     61 H          14.7664   -1.3042    0.0000 H       1  UNL1        0.2921
     62 H           4.0928   -5.6052    0.0000 H       1  UNL1        0.0655
     63 H          13.0221    4.2239    0.0000 H       1  UNL1        0.2923
     64 H          11.0090    5.4777    0.0000 H       1  UNL1        0.2923
     65 H           2.0000   -3.1344    0.0000 H       1  UNL1        0.2923
     66 H           2.3655   -5.4777    0.0000 H       1  UNL1        0.2923
@<TRIPOS>BOND
     1     1    15    1
     2     1    18    1
     3     2    15    1
     4     2    19    1
     5    14     3    1
     6     3    50    1
     7     4    24    1
     8     4    27    1
     9     5    20    1
    10     5    55    1
    11    26     6    1
    12     6    57    1
    13     7    28    1
    14     7    58    1
    15     8    33    1
    16     8    61    1
    17     9    35    1
    18     9    63    1
    19    10    37    1
    20    10    64    1
    21    11    40    1
    22    11    65    1
    23    12    42    1
    24    12    66    1
    25    13    14    1
    26    13    16    1
    27    13    17    1
    28    13    43    1
    29    14    15    1
    30    14    44    1
    31    15    21    1
    32    16    18   ar
    33    16    20   ar
    34    17    19   ar
    35    17    28   ar
    36    18    25   ar
    37    19    29   ar
    38    20    22   ar
    39    21    30   ar
    40    21    31   ar
    41    22    23    1
    42    22    24   ar
    43    23    26    1
    44    23    45    1
    45    23    46    1
    46    24    25   ar
    47    25    47    1
    48    26    27    1
    49    26    48    1
    50    27    34    1
    51    27    49    1
    52    28    32   ar
    53    29    33   ar
    54    29    51    1
    55    30    35   ar
    56    30    52    1
    57    31    36   ar
    58    31    53    1
    59    32    33   ar
    60    32    54    1
    61    34    38   ar
    62    34    39   ar
    63    35    37   ar
    64    36    37   ar
    65    36    56    1
    66    38    40   ar
    67    38    59    1
    68    39    41   ar
    69    39    60    1
    70    40    42   ar
    71    41    42   ar
    72    41    62    1
