@<TRIPOS>MOLECULE
IMPHY002125
 48 53 0 0 0
SMALL
GASTEIGER

@<TRIPOS>ATOM
      1 O           3.8076    1.3444    0.0000 O.3     1  UNL1       -0.4599
      2 O           7.6812   -0.2434    0.0000 O.3     1  UNL1       -0.3733
      3 O           5.0332    2.5682    0.0000 O.2     1  UNL1       -0.2512
      4 N           6.1798   -0.8097    0.0000 N.3     1  UNL1       -0.2626
      5 N           4.0899   -1.7652    0.0000 N.2     1  UNL1       -0.2536
      6 C           6.4862    0.6318    0.0000 C.3     1  UNL1        0.0198
      7 C           5.9169   -0.0005    0.0000 C.3     1  UNL1        0.0216
      8 C           4.5153   -0.4559    0.0000 C.3     1  UNL1        0.0760
      9 C           4.5142    0.6368    0.0000 C.3     1  UNL1        0.1226
     10 C           6.7056   -2.4281    0.0000 C.3     1  UNL1       -0.0068
     11 C           5.0846    0.1764    0.0000 C.3     1  UNL1       -0.0184
     12 C           5.6105   -1.4420    0.0000 C.3     1  UNL1        0.0532
     13 C           5.8734   -2.2512    0.0000 C.3     1  UNL1       -0.0249
     14 C           4.7782   -1.2651    0.0000 C.2     1  UNL1        0.0508
     15 C           7.0121   -0.9866    0.0000 C.3     1  UNL1        0.1318
     16 C           7.2750   -1.7958    0.0000 C.2     1  UNL1       -0.0273
     17 C           3.6645   -0.4559    0.0000 C.ar    1  UNL1       -0.0067
     18 C           3.4016   -1.2651    0.0000 C.ar    1  UNL1        0.0681
     19 C           8.2531   -2.0037    0.0000 C.2     1  UNL1       -0.0839
     20 C           3.0952    0.1764    0.0000 C.ar    1  UNL1       -0.0555
     21 C           2.5693   -1.4420    0.0000 C.ar    1  UNL1       -0.0360
     22 C           4.0671    2.3101    0.0000 C.2     1  UNL1        0.3043
     23 C           2.2629   -0.0005    0.0000 C.ar    1  UNL1       -0.0613
     24 C           8.5621   -2.9547    0.0000 C.3     1  UNL1       -0.0464
     25 C           2.0000   -0.8097    0.0000 C.ar    1  UNL1       -0.0597
     26 C           3.3605    3.0177    0.0000 C.3     1  UNL1        0.0332
     27 H           6.9092    1.0851    0.0000 H       1  UNL1        0.0358
     28 H           5.7347    0.8298    0.0000 H       1  UNL1        0.0468
     29 H           4.7523    1.2092    0.0000 H       1  UNL1        0.0750
     30 H           6.9683   -3.2365    0.0000 H       1  UNL1        0.0352
     31 H           5.3169    0.7513    0.0000 H       1  UNL1        0.0294
     32 H           4.5588    0.5050    0.0000 H       1  UNL1        0.0294
     33 H           5.0417   -2.0736    0.0000 H       1  UNL1        0.0526
     34 H           5.2594   -2.3374    0.0000 H       1  UNL1        0.0290
     35 H           5.8518   -2.8708    0.0000 H       1  UNL1        0.0290
     36 H           7.6185   -1.1155    0.0000 H       1  UNL1        0.0817
     37 H           8.6680   -1.5429    0.0000 H       1  UNL1        0.0570
     38 H           3.2868    0.7661    0.0000 H       1  UNL1        0.0621
     39 H           8.2876   -0.3723    0.0000 H       1  UNL1        0.2118
     40 H           2.3777   -2.0316    0.0000 H       1  UNL1        0.0639
     41 H           1.8481    0.4603    0.0000 H       1  UNL1        0.0618
     42 H           7.9725   -3.1463    0.0000 H       1  UNL1        0.0272
     43 H           8.7537   -3.5444    0.0000 H       1  UNL1        0.0272
     44 H           9.1518   -2.7632    0.0000 H       1  UNL1        0.0272
     45 H           1.3936   -0.9386    0.0000 H       1  UNL1        0.0618
     46 H           3.7992    3.4558    0.0000 H       1  UNL1        0.0342
     47 H           2.9224    3.4564    0.0000 H       1  UNL1        0.0342
     48 H           2.9217    2.5796    0.0000 H       1  UNL1        0.0342
@<TRIPOS>BOND
     1     1     9    1
     2     1    22    1
     3    15     2    1
     4     2    39    1
     5     3    22    2
     6     4     7    1
     7     4    12    1
     8     4    15    1
     9     5    14    2
    10     5    18    1
    11     6     7    1
    12     6     9    1
    13     6    10    1
    14     6    27    1
    15     7    11    1
    16     7    28    1
    17     8     9    1
    18     8    11    1
    19     8    14    1
    20     8    17    1
    21     9    29    1
    22    10    13    1
    23    10    16    1
    24    10    30    1
    25    11    31    1
    26    11    32    1
    27    12    13    1
    28    12    14    1
    29    12    33    1
    30    13    34    1
    31    13    35    1
    32    15    16    1
    33    15    36    1
    34    16    19    2
    35    17    18   ar
    36    17    20   ar
    37    18    21   ar
    38    19    24    1
    39    19    37    1
    40    20    23   ar
    41    20    38    1
    42    21    25   ar
    43    21    40    1
    44    22    26    1
    45    23    25   ar
    46    23    41    1
    47    24    42    1
    48    24    43    1
    49    24    44    1
    50    25    45    1
    51    26    46    1
    52    26    47    1
    53    26    48    1
