@<TRIPOS>MOLECULE
IMPHY003026
 18 18 0 0 0
SMALL
GASTEIGER

@<TRIPOS>ATOM
      1 O           5.8660   -0.7015    0.0000 O.3     1  UNL1       -0.4793
      2 O           4.3660   -1.5675    0.0000 O.2     1  UNL1       -0.2489
      3 N           4.8660    1.0306    0.0000 N.3     1  UNL1       -0.3154
      4 C           4.3660    0.1645    0.0000 C.3     1  UNL1        0.1214
      5 C           3.5000   -0.3355    0.0000 C.3     1  UNL1        0.0075
      6 C           3.5000    0.6645    0.0000 C.3     1  UNL1       -0.0154
      7 C           4.8660   -0.7015    0.0000 C.2     1  UNL1        0.3255
      8 C           3.0000   -1.2015    0.0000 C.2     1  UNL1       -0.0857
      9 C           2.0000   -1.2015    0.0000 C.2     1  UNL1       -0.1023
     10 H           2.9011   -0.1750    0.0000 H       1  UNL1        0.0367
     11 H           3.7120    1.2472    0.0000 H       1  UNL1        0.0295
     12 H           2.8894    0.7722    0.0000 H       1  UNL1        0.0295
     13 H           3.3100   -1.7384    0.0000 H       1  UNL1        0.0570
     14 H           4.5560    1.5675    0.0000 H       1  UNL1        0.1192
     15 H           5.4860    1.0306    0.0000 H       1  UNL1        0.1192
     16 H           1.6900   -0.6645    0.0000 H       1  UNL1        0.0532
     17 H           1.6900   -1.7384    0.0000 H       1  UNL1        0.0532
     18 H           6.1760   -1.2384    0.0000 H       1  UNL1        0.2951
@<TRIPOS>BOND
     1     1     7    1
     2     1    18    1
     3     2     7    2
     4     4     3    1
     5     3    14    1
     6     3    15    1
     7     4     5    1
     8     4     6    1
     9     4     7    1
    10     5     6    1
    11     5     8    1
    12     5    10    1
    13     6    11    1
    14     6    12    1
    15     8     9    2
    16     8    13    1
    17     9    16    1
    18     9    17    1
