@<TRIPOS>MOLECULE
IMPHY007151
 32 31 0 0 0
SMALL
GASTEIGER

@<TRIPOS>ATOM
      1 O           5.1350    1.0950    0.0000 O.3     1  UNL1       -0.3820
      2 O           2.5369   -0.4050    0.0000 O.3     1  UNL1       -0.3944
      3 O           6.0010   -1.4050    0.0000 O.2     1  UNL1       -0.2730
      4 O          10.3312    0.0950    0.0000 O.3     1  UNL1       -0.4806
      5 O           9.4651   -1.4050    0.0000 O.2     1  UNL1       -0.2510
      6 N           6.8671    0.0950    0.0000 N.am    1  UNL1       -0.3126
      7 C           4.2690   -0.4050    0.0000 C.3     1  UNL1        0.0227
      8 C           5.1350    0.0950    0.0000 C.3     1  UNL1        0.1380
      9 C           3.4030   -0.9050    0.0000 C.3     1  UNL1        0.0521
     10 C           3.7690    0.4610    0.0000 C.3     1  UNL1       -0.0549
     11 C           4.7690   -1.2710    0.0000 C.3     1  UNL1       -0.0549
     12 C           6.0010   -0.4050    0.0000 C.2     1  UNL1        0.2423
     13 C           7.7331   -0.4050    0.0000 C.3     1  UNL1        0.0217
     14 C           8.5991    0.0950    0.0000 C.3     1  UNL1        0.0603
     15 C           9.4651   -0.4050    0.0000 C.2     1  UNL1        0.3062
     16 H           5.6720    0.4050    0.0000 H       1  UNL1        0.0696
     17 H           3.0044   -1.3800    0.0000 H       1  UNL1        0.0563
     18 H           3.8015   -1.3800    0.0000 H       1  UNL1        0.0563
     19 H           4.3059    0.7710    0.0000 H       1  UNL1        0.0237
     20 H           3.4590    0.9980    0.0000 H       1  UNL1        0.0237
     21 H           3.2320    0.1510    0.0000 H       1  UNL1        0.0237
     22 H           4.2320   -1.5810    0.0000 H       1  UNL1        0.0237
     23 H           5.0790   -1.8080    0.0000 H       1  UNL1        0.0237
     24 H           5.3059   -0.9610    0.0000 H       1  UNL1        0.0237
     25 H           6.8671    0.7150    0.0000 H       1  UNL1        0.1488
     26 H           5.6720    1.4050    0.0000 H       1  UNL1        0.2105
     27 H           7.3346   -0.8799    0.0000 H       1  UNL1        0.0467
     28 H           8.1316   -0.8799    0.0000 H       1  UNL1        0.0467
     29 H           2.0000   -0.7150    0.0000 H       1  UNL1        0.2094
     30 H           8.9976    0.5699    0.0000 H       1  UNL1        0.0393
     31 H           8.2006    0.5699    0.0000 H       1  UNL1        0.0393
     32 H          10.8681   -0.2150    0.0000 H       1  UNL1        0.2951
@<TRIPOS>BOND
     1     8     1    1
     2     1    26    1
     3     2     9    1
     4     2    29    1
     5     3    12    2
     6     4    15    1
     7     4    32    1
     8     5    15    2
     9     6    12   am
    10     6    13    1
    11     6    25    1
    12     7     8    1
    13     7     9    1
    14     7    10    1
    15     7    11    1
    16     8    12    1
    17     8    16    1
    18     9    17    1
    19     9    18    1
    20    10    19    1
    21    10    20    1
    22    10    21    1
    23    11    22    1
    24    11    23    1
    25    11    24    1
    26    13    14    1
    27    13    27    1
    28    13    28    1
    29    14    15    1
    30    14    30    1
    31    14    31    1
