@<TRIPOS>MOLECULE
IMPHY012227
 84 88 0 0 0
SMALL
GASTEIGER

@<TRIPOS>ATOM
      1 O           6.1847   -2.9732    0.0000 O.3     1  UNL1       -0.3915
      2 O           2.5357   -1.9563    0.0000 O.3     1  UNL1       -0.3886
      3 O           2.5519    0.1353    0.0000 O.3     1  UNL1       -0.3892
      4 O           4.3500   -3.7342    0.0000 O.3     1  UNL1       -0.3944
      5 O          11.4608    1.1302    0.0000 O.3     1  UNL1       -0.4802
      6 O          10.6064   -0.3764    0.0000 O.2     1  UNL1       -0.2504
      7 C           7.0628   -0.4039    0.0000 C.3     1  UNL1       -0.0170
      8 C           6.1968    0.0961    0.0000 C.3     1  UNL1       -0.0255
      9 C           5.2868   -0.4108    0.0000 C.3     1  UNL1       -0.0202
     10 C           7.9288    0.0961    0.0000 C.3     1  UNL1       -0.0050
     11 C           5.2787   -1.4524    0.0000 C.3     1  UNL1        0.0007
     12 C           7.0789   -1.4454    0.0000 C.3     1  UNL1       -0.0201
     13 C           6.1808   -1.9732    0.0000 C.3     1  UNL1        0.0597
     14 C           4.3433   -2.0021    0.0000 C.3     1  UNL1        0.0250
     15 C           7.9288    1.0961    0.0000 C.2     1  UNL1       -0.0626
     16 C           8.8228    1.6307    0.0000 C.3     1  UNL1       -0.0008
     17 C           4.3599    0.1533    0.0000 C.3     1  UNL1       -0.0184
     18 C           6.1968    1.0961    0.0000 C.3     1  UNL1       -0.0306
     19 C           8.8228   -0.4386    0.0000 C.3     1  UNL1       -0.0424
     20 C           9.7288    1.1169    0.0000 C.3     1  UNL1        0.0743
     21 C           7.7056   -1.1700    0.0000 C.3     1  UNL1       -0.0584
     22 C           9.7288    0.0752    0.0000 C.3     1  UNL1       -0.0359
     23 C           3.4037   -1.4596    0.0000 C.3     1  UNL1        0.0888
     24 C           3.4120   -0.3747    0.0000 C.3     1  UNL1        0.0822
     25 C           5.2945    0.5892    0.0000 C.3     1  UNL1       -0.0588
     26 C           7.0628    1.5961    0.0000 C.2     1  UNL1       -0.0836
     27 C           8.2709   -0.8436    0.0000 C.3     1  UNL1       -0.0553
     28 C           8.7977    2.7154    0.0000 C.3     1  UNL1       -0.0337
     29 C          10.6726    1.6521    0.0000 C.3     1  UNL1       -0.0364
     30 C           3.8467   -2.8701    0.0000 C.3     1  UNL1        0.0524
     31 C           9.7288    3.2723    0.0000 C.3     1  UNL1       -0.0407
     32 C           4.8466   -2.8662    0.0000 C.3     1  UNL1       -0.0547
     33 C          10.6726    2.7371    0.0000 C.3     1  UNL1       -0.0492
     34 C          10.5987    0.6236    0.0000 C.2     1  UNL1        0.3115
     35 C           7.9222    3.1986    0.0000 C.3     1  UNL1       -0.0616
     36 C           9.7173    4.2723    0.0000 C.3     1  UNL1       -0.0622
     37 H           6.9329    0.5211    0.0000 H       1  UNL1        0.0315
     38 H           5.2820   -2.3024    0.0000 H       1  UNL1        0.0338
     39 H           7.2969   -2.0258    0.0000 H       1  UNL1        0.0296
     40 H           7.6880   -1.3300    0.0000 H       1  UNL1        0.0296
     41 H           6.7195   -2.2801    0.0000 H       1  UNL1        0.0596
     42 H           8.0786    2.0415    0.0000 H       1  UNL1        0.0359
     43 H           4.7681    0.6199    0.0000 H       1  UNL1        0.0296
     44 H           3.9700    0.6353    0.0000 H       1  UNL1        0.0296
     45 H           5.9847    1.6787    0.0000 H       1  UNL1        0.0310
     46 H           5.5862    0.9884    0.0000 H       1  UNL1        0.0310
     47 H           8.4182   -0.9084    0.0000 H       1  UNL1        0.0274
     48 H           9.2164   -0.9176    0.0000 H       1  UNL1        0.0274
     49 H           7.2306   -1.5685    0.0000 H       1  UNL1        0.0235
     50 H           8.1041   -1.6449    0.0000 H       1  UNL1        0.0235
     51 H           8.1805   -0.7715    0.0000 H       1  UNL1        0.0235
     52 H           9.9379   -0.5084    0.0000 H       1  UNL1        0.0276
     53 H          10.3397    0.1813    0.0000 H       1  UNL1        0.0276
     54 H           3.4025   -2.0796    0.0000 H       1  UNL1        0.0625
     55 H           2.8722   -0.6795    0.0000 H       1  UNL1        0.0619
     56 H           5.9145    0.5844    0.0000 H       1  UNL1        0.0235
     57 H           5.2993    1.2092    0.0000 H       1  UNL1        0.0235
     58 H           4.6745    0.5940    0.0000 H       1  UNL1        0.0235
     59 H           7.0628    2.2161    0.0000 H       1  UNL1        0.0572
     60 H           7.6884   -1.0557    0.0000 H       1  UNL1        0.0238
     61 H           8.4830   -1.4262    0.0000 H       1  UNL1        0.0238
     62 H           8.8535   -0.6315    0.0000 H       1  UNL1        0.0238
     63 H           8.2674    2.3941    0.0000 H       1  UNL1        0.0307
     64 H          10.8817    1.0684    0.0000 H       1  UNL1        0.0276
     65 H          11.2835    1.7582    0.0000 H       1  UNL1        0.0276
     66 H           3.3702   -2.4734    0.0000 H       1  UNL1        0.0563
     67 H           3.3732   -3.2704    0.0000 H       1  UNL1        0.0563
     68 H          10.2628    3.5875    0.0000 H       1  UNL1        0.0301
     69 H           4.3109   -3.1783    0.0000 H       1  UNL1        0.0237
     70 H           5.1587   -3.4019    0.0000 H       1  UNL1        0.0237
     71 H           5.3824   -2.5541    0.0000 H       1  UNL1        0.0237
     72 H          11.2835    2.6310    0.0000 H       1  UNL1        0.0268
     73 H          10.8817    3.3208    0.0000 H       1  UNL1        0.0268
     74 H           6.7228   -3.2811    0.0000 H       1  UNL1        0.2098
     75 H           8.2218    3.7414    0.0000 H       1  UNL1        0.0233
     76 H           7.3794    3.4982    0.0000 H       1  UNL1        0.0233
     77 H           7.6226    2.6558    0.0000 H       1  UNL1        0.0233
     78 H           2.0000   -1.6442    0.0000 H       1  UNL1        0.2099
     79 H           2.5590    0.7553    0.0000 H       1  UNL1        0.2099
     80 H          10.3372    4.2794    0.0000 H       1  UNL1        0.0233
     81 H           9.7101    4.8922    0.0000 H       1  UNL1        0.0233
     82 H           9.0973    4.2651    0.0000 H       1  UNL1        0.0233
     83 H           4.0421   -4.2723    0.0000 H       1  UNL1        0.2094
     84 H          12.0001    0.8244    0.0000 H       1  UNL1        0.2951
@<TRIPOS>BOND
     1    13     1    1
     2     1    74    1
     3    23     2    1
     4     2    78    1
     5    24     3    1
     6     3    79    1
     7     4    30    1
     8     4    83    1
     9     5    34    1
    10     5    84    1
    11     6    34    2
    12     7     8    1
    13     7    10    1
    14     7    12    1
    15     7    21    1
    16     8     9    1
    17     8    18    1
    18     8    37    1
    19     9    11    1
    20     9    17    1
    21     9    25    1
    22    10    15    1
    23    10    19    1
    24    10    27    1
    25    11    13    1
    26    11    14    1
    27    11    38    1
    28    12    13    1
    29    12    39    1
    30    12    40    1
    31    13    41    1
    32    14    23    1
    33    14    30    1
    34    14    32    1
    35    15    16    1
    36    15    26    2
    37    16    20    1
    38    16    28    1
    39    16    42    1
    40    17    24    1
    41    17    43    1
    42    17    44    1
    43    18    26    1
    44    18    45    1
    45    18    46    1
    46    19    22    1
    47    19    47    1
    48    19    48    1
    49    20    22    1
    50    20    29    1
    51    20    34    1
    52    21    49    1
    53    21    50    1
    54    21    51    1
    55    22    52    1
    56    22    53    1
    57    23    24    1
    58    23    54    1
    59    24    55    1
    60    25    56    1
    61    25    57    1
    62    25    58    1
    63    26    59    1
    64    27    60    1
    65    27    61    1
    66    27    62    1
    67    28    31    1
    68    28    35    1
    69    28    63    1
    70    29    33    1
    71    29    64    1
    72    29    65    1
    73    30    66    1
    74    30    67    1
    75    31    33    1
    76    31    36    1
    77    31    68    1
    78    32    69    1
    79    32    70    1
    80    32    71    1
    81    33    72    1
    82    33    73    1
    83    35    75    1
    84    35    76    1
    85    35    77    1
    86    36    80    1
    87    36    81    1
    88    36    82    1
