@<TRIPOS>MOLECULE
IMPHY001951
 94 100 0 0 0
SMALL
GASTEIGER

@<TRIPOS>ATOM
      1 O          12.8895   -0.0931    0.0000 O.3     1  UNL1       -0.3425
      2 O          12.7476   -2.0736    0.0000 O.3     1  UNL1       -0.3417
      3 O           6.8671   -0.2271    0.0000 O.3     1  UNL1       -0.3419
      4 O          13.9142    0.3012    0.0000 O.3     1  UNL1       -0.3861
      5 O           5.0597    0.8257    0.0000 O.3     1  UNL1       -0.3866
      6 O           5.0839    2.9172    0.0000 O.3     1  UNL1       -0.3888
      7 O           5.1350   -0.2271    0.0000 O.3     1  UNL1       -0.3405
      8 O           6.8671   -2.2271    0.0000 O.3     1  UNL1       -0.3841
      9 O           5.1350   -3.2271    0.0000 O.3     1  UNL1       -0.3864
     10 O           3.4030   -2.2271    0.0000 O.3     1  UNL1       -0.3865
     11 O           2.5369   -0.7271    0.0000 O.3     1  UNL1       -0.3924
     12 C          10.4171   -0.2385    0.0000 C.3     1  UNL1       -0.0233
     13 C          10.4364    0.7613    0.0000 C.3     1  UNL1       -0.0295
     14 C          11.3573   -0.5614    0.0000 C.3     1  UNL1       -0.0014
     15 C           9.5802    1.2779    0.0000 C.3     1  UNL1       -0.0305
     16 C          11.9563    0.2319    0.0000 C.3     1  UNL1        0.0661
     17 C           8.7047    0.7947    0.0000 C.3     1  UNL1       -0.0261
     18 C          11.3883    1.0478    0.0000 C.3     1  UNL1       -0.0226
     19 C           9.5416   -0.7217    0.0000 C.3     1  UNL1       -0.0467
     20 C          11.9254   -1.3700    0.0000 C.3     1  UNL1        0.0186
     21 C           7.8046    1.3190    0.0000 C.3     1  UNL1        0.0209
     22 C           8.6854   -0.2051    0.0000 C.3     1  UNL1       -0.0486
     23 C          12.8705   -1.0811    0.0000 C.3     1  UNL1        0.1999
     24 C          10.3978   -1.2383    0.0000 C.3     1  UNL1       -0.0590
     25 C           9.6163    2.3189    0.0000 C.3     1  UNL1       -0.0311
     26 C           7.8166    2.3606    0.0000 C.2     1  UNL1       -0.0622
     27 C           6.8671    0.7729    0.0000 C.3     1  UNL1        0.0993
     28 C           8.7286    2.8639    0.0000 C.2     1  UNL1       -0.0838
     29 C          11.6006   -2.3157    0.0000 C.3     1  UNL1       -0.0571
     30 C          13.7913   -0.6913    0.0000 C.3     1  UNL1        0.1129
     31 C           7.7930    0.3191    0.0000 C.3     1  UNL1       -0.0531
     32 C           6.8920    2.9282    0.0000 C.3     1  UNL1       -0.0025
     33 C           5.9295    1.3190    0.0000 C.3     1  UNL1        0.1083
     34 C           5.9421    2.4039    0.0000 C.3     1  UNL1        0.0872
     35 C          14.5894   -1.2938    0.0000 C.3     1  UNL1        0.0014
     36 C          13.5457   -2.6761    0.0000 C.3     1  UNL1        0.0720
     37 C          14.4666   -2.2863    0.0000 C.2     1  UNL1       -0.0486
     38 C           6.0010   -0.7271    0.0000 C.3     1  UNL1        0.1884
     39 C           6.0010   -1.7271    0.0000 C.3     1  UNL1        0.1341
     40 C          15.2646   -2.8888    0.0000 C.2     1  UNL1       -0.0972
     41 C           5.1350   -2.2271    0.0000 C.3     1  UNL1        0.1141
     42 C           4.2690   -0.7271    0.0000 C.3     1  UNL1        0.1130
     43 C           4.2690   -1.7271    0.0000 C.3     1  UNL1        0.1119
     44 C           3.4030   -0.2271    0.0000 C.3     1  UNL1        0.0730
     45 H          10.5426    1.6047    0.0000 H       1  UNL1        0.0310
     46 H          10.8466   -1.2409    0.0000 H       1  UNL1        0.0335
     47 H          10.3275    1.6829    0.0000 H       1  UNL1        0.0310
     48 H          12.4700    0.9092    0.0000 H       1  UNL1        0.0600
     49 H           9.4325    0.3556    0.0000 H       1  UNL1        0.0313
     50 H          11.9316    1.3466    0.0000 H       1  UNL1        0.0293
     51 H          11.1482    1.6194    0.0000 H       1  UNL1        0.0293
     52 H           9.1340   -1.1889    0.0000 H       1  UNL1        0.0271
     53 H           9.9309   -1.2042    0.0000 H       1  UNL1        0.0271
     54 H          12.3563   -1.8158    0.0000 H       1  UNL1        0.0354
     55 H           8.0770   -0.0857    0.0000 H       1  UNL1        0.0268
     56 H           8.4622   -0.7835    0.0000 H       1  UNL1        0.0268
     57 H           9.7780   -1.2264    0.0000 H       1  UNL1        0.0235
     58 H          10.3859   -1.8582    0.0000 H       1  UNL1        0.0235
     59 H          11.0177   -1.2503    0.0000 H       1  UNL1        0.0235
     60 H          10.2231    2.1917    0.0000 H       1  UNL1        0.0310
     61 H           9.8455    2.8950    0.0000 H       1  UNL1        0.0310
     62 H           7.4046    0.4639    0.0000 H       1  UNL1        0.0632
     63 H           8.7429    3.4837    0.0000 H       1  UNL1        0.0572
     64 H          11.0142   -2.1143    0.0000 H       1  UNL1        0.0234
     65 H          11.3992   -2.9021    0.0000 H       1  UNL1        0.0234
     66 H          12.1870   -2.5171    0.0000 H       1  UNL1        0.0234
     67 H          14.3623   -0.4496    0.0000 H       1  UNL1        0.0650
     68 H           7.1731    0.3262    0.0000 H       1  UNL1        0.0239
     69 H           7.7859   -0.3009    0.0000 H       1  UNL1        0.0239
     70 H           8.4130    0.3119    0.0000 H       1  UNL1        0.0239
     71 H           7.3020    3.3933    0.0000 H       1  UNL1        0.0336
     72 H           6.5039    3.4117    0.0000 H       1  UNL1        0.0336
     73 H           5.3956    1.6342    0.0000 H       1  UNL1        0.0645
     74 H           5.9528    3.0238    0.0000 H       1  UNL1        0.0623
     75 H          15.1821   -1.4757    0.0000 H       1  UNL1        0.0337
     76 H          14.8714   -0.7417    0.0000 H       1  UNL1        0.0337
     77 H          13.0919   -3.0985    0.0000 H       1  UNL1        0.0608
     78 H          13.8829   -3.1964    0.0000 H       1  UNL1        0.0608
     79 H          14.4851    0.5429    0.0000 H       1  UNL1        0.2100
     80 H           6.0010   -0.1071    0.0000 H       1  UNL1        0.0938
     81 H           4.5251    1.1398    0.0000 H       1  UNL1        0.2100
     82 H           5.0934    3.5371    0.0000 H       1  UNL1        0.2099
     83 H           6.0010   -2.3471    0.0000 H       1  UNL1        0.0671
     84 H          15.1885   -3.5042    0.0000 H       1  UNL1        0.0535
     85 H          15.8356   -2.6471    0.0000 H       1  UNL1        0.0535
     86 H           4.5981   -2.5371    0.0000 H       1  UNL1        0.0648
     87 H           4.2690   -0.1071    0.0000 H       1  UNL1        0.0647
     88 H           3.7320   -1.4171    0.0000 H       1  UNL1        0.0647
     89 H           6.8671   -2.8471    0.0000 H       1  UNL1        0.2101
     90 H           3.8015    0.2478    0.0000 H       1  UNL1        0.0584
     91 H           3.0044    0.2478    0.0000 H       1  UNL1        0.0584
     92 H           4.5981   -3.5371    0.0000 H       1  UNL1        0.2100
     93 H           3.4030   -2.8471    0.0000 H       1  UNL1        0.2100
     94 H           2.0000   -0.4171    0.0000 H       1  UNL1        0.2095
@<TRIPOS>BOND
     1     1    16    1
     2    23     1    1
     3     2    23    1
     4     2    36    1
     5    27     3    1
     6    38     3    1
     7    30     4    1
     8     4    79    1
     9    33     5    1
    10     5    81    1
    11    34     6    1
    12     6    82    1
    13     7    38    1
    14     7    42    1
    15    39     8    1
    16     8    89    1
    17    41     9    1
    18     9    92    1
    19    43    10    1
    20    10    93    1
    21    11    44    1
    22    11    94    1
    23    12    13    1
    24    12    14    1
    25    12    19    1
    26    12    24    1
    27    13    15    1
    28    13    18    1
    29    13    45    1
    30    14    16    1
    31    14    20    1
    32    14    46    1
    33    15    17    1
    34    15    25    1
    35    15    47    1
    36    16    18    1
    37    16    48    1
    38    17    21    1
    39    17    22    1
    40    17    49    1
    41    18    50    1
    42    18    51    1
    43    19    22    1
    44    19    52    1
    45    19    53    1
    46    20    23    1
    47    20    29    1
    48    20    54    1
    49    21    26    1
    50    21    27    1
    51    21    31    1
    52    22    55    1
    53    22    56    1
    54    23    30    1
    55    24    57    1
    56    24    58    1
    57    24    59    1
    58    25    28    1
    59    25    60    1
    60    25    61    1
    61    26    28    2
    62    26    32    1
    63    27    33    1
    64    27    62    1
    65    28    63    1
    66    29    64    1
    67    29    65    1
    68    29    66    1
    69    30    35    1
    70    30    67    1
    71    31    68    1
    72    31    69    1
    73    31    70    1
    74    32    34    1
    75    32    71    1
    76    32    72    1
    77    33    34    1
    78    33    73    1
    79    34    74    1
    80    35    37    1
    81    35    75    1
    82    35    76    1
    83    36    37    1
    84    36    77    1
    85    36    78    1
    86    37    40    2
    87    38    39    1
    88    38    80    1
    89    39    41    1
    90    39    83    1
    91    40    84    1
    92    40    85    1
    93    41    43    1
    94    41    86    1
    95    42    43    1
    96    42    44    1
    97    42    87    1
    98    43    88    1
    99    44    90    1
   100    44    91    1
