@<TRIPOS>MOLECULE
IMPHY007607
 29 29 0 0 0
SMALL
GASTEIGER

@<TRIPOS>ATOM
      1 O           4.5981    2.6900    0.0000 O.3     1  UNL1       -0.4775
      2 O           2.8660    2.6900    0.0000 O.2     1  UNL1       -0.2458
      3 C           2.8660   -0.3100    0.0000 C.3     1  UNL1       -0.0159
      4 C           2.0000   -0.8100    0.0000 C.3     1  UNL1       -0.0425
      5 C           3.7320   -0.8100    0.0000 C.3     1  UNL1       -0.0280
      6 C           2.0000   -1.8100    0.0000 C.3     1  UNL1       -0.0315
      7 C           2.8660   -2.3100    0.0000 C.2     1  UNL1       -0.0765
      8 C           2.8660    0.6900    0.0000 C.2     1  UNL1       -0.0625
      9 C           3.7320   -1.8100    0.0000 C.2     1  UNL1       -0.0845
     10 C           2.8660   -3.3100    0.0000 C.3     1  UNL1       -0.0438
     11 C           2.0000    1.1900    0.0000 C.3     1  UNL1       -0.0430
     12 C           3.7320    1.1900    0.0000 C.2     1  UNL1        0.0216
     13 C           3.7320    2.1900    0.0000 C.2     1  UNL1        0.3295
     14 H           3.4030    0.0000    0.0000 H       1  UNL1        0.0349
     15 H           1.7880   -0.2274    0.0000 H       1  UNL1        0.0274
     16 H           1.3894   -0.9177    0.0000 H       1  UNL1        0.0274
     17 H           4.3426   -0.9177    0.0000 H       1  UNL1        0.0313
     18 H           3.9441   -0.2274    0.0000 H       1  UNL1        0.0313
     19 H           1.3894   -1.7023    0.0000 H       1  UNL1        0.0310
     20 H           1.7880   -2.3926    0.0000 H       1  UNL1        0.0310
     21 H           4.2690   -2.1200    0.0000 H       1  UNL1        0.0572
     22 H           2.2460   -3.3100    0.0000 H       1  UNL1        0.0274
     23 H           2.8660   -3.9300    0.0000 H       1  UNL1        0.0274
     24 H           3.4860   -3.3100    0.0000 H       1  UNL1        0.0274
     25 H           2.3100    1.7269    0.0000 H       1  UNL1        0.0275
     26 H           1.4631    1.5000    0.0000 H       1  UNL1        0.0275
     27 H           1.6900    0.6531    0.0000 H       1  UNL1        0.0275
     28 H           4.2690    0.8800    0.0000 H       1  UNL1        0.0688
     29 H           4.5981    3.3100    0.0000 H       1  UNL1        0.2954
@<TRIPOS>BOND
     1     1    13    1
     2     1    29    1
     3     2    13    2
     4     3     4    1
     5     3     5    1
     6     3     8    1
     7     3    14    1
     8     4     6    1
     9     4    15    1
    10     4    16    1
    11     5     9    1
    12     5    17    1
    13     5    18    1
    14     6     7    1
    15     6    19    1
    16     6    20    1
    17     7     9    2
    18     7    10    1
    19     8    11    1
    20     8    12    2
    21     9    21    1
    22    10    22    1
    23    10    23    1
    24    10    24    1
    25    11    25    1
    26    11    26    1
    27    11    27    1
    28    12    13    1
    29    12    28    1
