@<TRIPOS>MOLECULE
IMPHY006389
 64 64 0 0 0
SMALL
GASTEIGER

@<TRIPOS>ATOM
      1 O           8.0622   -0.5950    0.0000 O.3     1  UNL1       -0.3282
      2 O           6.3301   -2.5950    0.0000 O.3     1  UNL1       -0.4557
      3 O           9.7942   -2.5950    0.0000 O.3     1  UNL1       -0.4521
      4 O           8.0622   -3.5950    0.0000 O.3     1  UNL1       -0.3841
      5 O           9.7942   -0.5950    0.0000 O.3     1  UNL1       -0.4309
      6 O           6.3301    0.4050    0.0000 O.3     1  UNL1       -0.4617
      7 O           5.4641   -1.0950    0.0000 O.2     1  UNL1       -0.2506
      8 O          10.6603   -1.0950    0.0000 O.2     1  UNL1       -0.2506
      9 O           8.9282    0.9050    0.0000 O.2     1  UNL1       -0.2505
     10 O           4.5981    0.4050    0.0000 O.2     1  UNL1       -0.2506
     11 O           2.0000   -2.0950    0.0000 O.co2   1  UNL1       -0.5818
     12 O           2.8660   -3.5950    0.0000 O.2     1  UNL1        0.0344
     13 O          14.1244   -2.0950    0.0000 O.co2   1  UNL1       -0.5818
     14 O          13.2583   -3.5950    0.0000 O.2     1  UNL1        0.0344
     15 O          11.5263    3.4050    0.0000 O.co2   1  UNL1       -0.5818
     16 O          12.3923    1.9050    0.0000 O.2     1  UNL1        0.0344
     17 O           3.7320    3.9050    0.0000 O.co2   1  UNL1       -0.5818
     18 O           5.4641    3.9050    0.0000 O.2     1  UNL1        0.0344
     19 N           2.8660   -2.5950    0.0000 N.pl3   1  UNL1        0.0385
     20 N          13.2583   -2.5950    0.0000 N.pl3   1  UNL1        0.0385
     21 N          11.5263    2.4050    0.0000 N.pl3   1  UNL1        0.0385
     22 N           4.5981    3.4050    0.0000 N.pl3   1  UNL1        0.0385
     23 C           7.1962   -2.0950    0.0000 C.3     1  UNL1        0.1617
     24 C           8.0622   -2.5950    0.0000 C.3     1  UNL1        0.1373
     25 C           8.9282   -2.0950    0.0000 C.3     1  UNL1        0.1940
     26 C           7.1962   -1.0950    0.0000 C.3     1  UNL1        0.1360
     27 C           8.9282   -1.0950    0.0000 C.3     1  UNL1        0.2451
     28 C           6.3301   -0.5950    0.0000 C.3     1  UNL1        0.1222
     29 C           5.4641   -2.0950    0.0000 C.2     1  UNL1        0.3138
     30 C          10.6603   -2.0950    0.0000 C.2     1  UNL1        0.3139
     31 C           9.7942    0.4050    0.0000 C.2     1  UNL1        0.3157
     32 C           4.5981   -2.5950    0.0000 C.3     1  UNL1        0.1096
     33 C          11.5263   -2.5950    0.0000 C.3     1  UNL1        0.1096
     34 C           5.4641    0.9050    0.0000 C.2     1  UNL1        0.3135
     35 C          10.6603    0.9050    0.0000 C.3     1  UNL1        0.1096
     36 C           3.7320   -2.0950    0.0000 C.3     1  UNL1        0.2177
     37 C          12.3923   -2.0950    0.0000 C.3     1  UNL1        0.2177
     38 C           5.4641    1.9050    0.0000 C.3     1  UNL1        0.1096
     39 C          10.6603    1.9050    0.0000 C.3     1  UNL1        0.2177
     40 C           4.5981    2.4050    0.0000 C.3     1  UNL1        0.2177
     41 H           6.6592   -1.7850    0.0000 H       1  UNL1        0.0789
     42 H           7.5252   -2.9050    0.0000 H       1  UNL1        0.0671
     43 H           9.4651   -1.7850    0.0000 H       1  UNL1        0.0825
     44 H           7.1962   -0.4750    0.0000 H       1  UNL1        0.0670
     45 H           8.9282   -0.4750    0.0000 H       1  UNL1        0.1097
     46 H           5.7196   -0.4873    0.0000 H       1  UNL1        0.0725
     47 H           6.1181   -1.1776    0.0000 H       1  UNL1        0.0725
     48 H           7.5252   -3.9050    0.0000 H       1  UNL1        0.2101
     49 H           4.1996   -3.0700    0.0000 H       1  UNL1        0.0442
     50 H           4.9966   -3.0700    0.0000 H       1  UNL1        0.0442
     51 H          11.1278   -3.0700    0.0000 H       1  UNL1        0.0442
     52 H          11.9248   -3.0700    0.0000 H       1  UNL1        0.0442
     53 H          10.8723    0.3224    0.0000 H       1  UNL1        0.0442
     54 H          11.2708    1.0127    0.0000 H       1  UNL1        0.0442
     55 H           4.1306   -1.6200    0.0000 H       1  UNL1        0.1093
     56 H           3.3335   -1.6200    0.0000 H       1  UNL1        0.1093
     57 H          12.7908   -1.6200    0.0000 H       1  UNL1        0.1093
     58 H          11.9938   -1.6200    0.0000 H       1  UNL1        0.1093
     59 H           6.0747    1.7973    0.0000 H       1  UNL1        0.0442
     60 H           5.6762    2.4876    0.0000 H       1  UNL1        0.0442
     61 H          10.4482    2.4876    0.0000 H       1  UNL1        0.1093
     62 H          10.0497    1.7973    0.0000 H       1  UNL1        0.1093
     63 H           3.9875    2.5127    0.0000 H       1  UNL1        0.1093
     64 H           4.3860    1.8224    0.0000 H       1  UNL1        0.1093
@<TRIPOS>UNITY_ATOM_ATTR
11 1
charge -1
13 1
charge -1
15 1
charge -1
17 1
charge -1
19 1
charge 1
20 1
charge 1
21 1
charge 1
22 1
charge 1
@<TRIPOS>BOND
     1     1    26    1
     2     1    27    1
     3    23     2    1
     4     2    29    1
     5    25     3    1
     6     3    30    1
     7    24     4    1
     8     4    48    1
     9    27     5    1
    10     5    31    1
    11     6    28    1
    12     6    34    1
    13     7    29    2
    14     8    30    2
    15     9    31    2
    16    10    34    2
    17    11    19    1
    18    12    19    2
    19    13    20    1
    20    14    20    2
    21    15    21    1
    22    16    21    2
    23    17    22    1
    24    18    22    2
    25    19    36    1
    26    20    37    1
    27    21    39    1
    28    22    40    1
    29    23    24    1
    30    23    26    1
    31    23    41    1
    32    24    25    1
    33    24    42    1
    34    25    27    1
    35    25    43    1
    36    26    28    1
    37    26    44    1
    38    27    45    1
    39    28    46    1
    40    28    47    1
    41    29    32    1
    42    30    33    1
    43    31    35    1
    44    32    36    1
    45    32    49    1
    46    32    50    1
    47    33    37    1
    48    33    51    1
    49    33    52    1
    50    34    38    1
    51    35    39    1
    52    35    53    1
    53    35    54    1
    54    36    55    1
    55    36    56    1
    56    37    57    1
    57    37    58    1
    58    38    40    1
    59    38    59    1
    60    38    60    1
    61    39    61    1
    62    39    62    1
    63    40    63    1
    64    40    64    1
