@<TRIPOS>MOLECULE
IMPHY001112
 39 44 0 0 0
SMALL
GASTEIGER

@<TRIPOS>ATOM
      1 O           5.7497    2.8819    0.0000 O.3     1  UNL1       -0.4562
      2 O           3.4519   -2.7745    0.0000 O.3     1  UNL1       -0.4526
      3 O           2.0000   -1.9363    0.0000 O.3     1  UNL1       -0.4526
      4 O           2.8197    1.8070    0.0000 O.3     1  UNL1       -0.5057
      5 O           8.9621    0.1117    0.0000 O.3     1  UNL1       -0.4526
      6 O           8.9621   -1.4977    0.0000 O.3     1  UNL1       -0.4526
      7 O           7.1333    1.7679    0.0000 O.2     1  UNL1       -0.2449
      8 C           5.4178    0.3070    0.0000 C.ar    1  UNL1        0.0046
      9 C           4.5518   -0.1930    0.0000 C.ar    1  UNL1       -0.0022
     10 C           5.4178    1.3070    0.0000 C.ar    1  UNL1        0.0771
     11 C           4.5518    1.8070    0.0000 C.ar    1  UNL1        0.0463
     12 C           3.6857    0.3070    0.0000 C.ar    1  UNL1        0.0283
     13 C           3.6857    1.3070    0.0000 C.ar    1  UNL1        0.1319
     14 C           6.2838   -0.1930    0.0000 C.ar    1  UNL1       -0.0128
     15 C           4.7610    2.7788    0.0000 C.3     1  UNL1        0.1220
     16 C           4.5678   -1.2345    0.0000 C.ar    1  UNL1       -0.0077
     17 C           2.7757   -0.1998    0.0000 C.ar    1  UNL1       -0.0049
     18 C           3.6698   -1.7623    0.0000 C.ar    1  UNL1        0.1668
     19 C           6.1548    1.9741    0.0000 C.2     1  UNL1        0.3406
     20 C           2.7677   -1.2414    0.0000 C.ar    1  UNL1        0.1669
     21 C           7.1498    0.3070    0.0000 C.ar    1  UNL1       -0.0084
     22 C           6.2838   -1.1930    0.0000 C.ar    1  UNL1       -0.0503
     23 C           8.0159   -0.1930    0.0000 C.ar    1  UNL1        0.1668
     24 C           8.0159   -1.1930    0.0000 C.ar    1  UNL1        0.1663
     25 C           7.1498   -1.6930    0.0000 C.ar    1  UNL1       -0.0156
     26 C           2.4220   -2.8819    0.0000 C.3     1  UNL1        0.2332
     27 C           9.5457   -0.6930    0.0000 C.3     1  UNL1        0.2332
     28 H           4.7618    3.3988    0.0000 H       1  UNL1        0.0750
     29 H           4.1445    2.8449    0.0000 H       1  UNL1        0.0750
     30 H           5.1083   -1.5383    0.0000 H       1  UNL1        0.0662
     31 H           2.2424    0.1163    0.0000 H       1  UNL1        0.0663
     32 H           7.1498    0.9270    0.0000 H       1  UNL1        0.0661
     33 H           5.7469   -1.5030    0.0000 H       1  UNL1        0.0625
     34 H           7.1498   -2.3130    0.0000 H       1  UNL1        0.0655
     35 H           1.8324   -3.0736    0.0000 H       1  UNL1        0.1166
     36 H           2.5507   -3.4884    0.0000 H       1  UNL1        0.1166
     37 H           2.8197    2.4270    0.0000 H       1  UNL1        0.2922
     38 H          10.0066   -1.1077    0.0000 H       1  UNL1        0.1166
     39 H          10.0066   -0.2783    0.0000 H       1  UNL1        0.1166
@<TRIPOS>BOND
     1     1    15    1
     2     1    19    1
     3     2    18    1
     4     2    26    1
     5     3    20    1
     6     3    26    1
     7     4    13    1
     8     4    37    1
     9     5    23    1
    10     5    27    1
    11     6    24    1
    12     6    27    1
    13     7    19    2
    14     8     9   ar
    15     8    10   ar
    16     8    14    1
    17     9    12   ar
    18     9    16   ar
    19    10    11   ar
    20    10    19    1
    21    11    13   ar
    22    11    15    1
    23    12    13   ar
    24    12    17   ar
    25    14    21   ar
    26    14    22   ar
    27    15    28    1
    28    15    29    1
    29    16    18   ar
    30    16    30    1
    31    17    20   ar
    32    17    31    1
    33    18    20   ar
    34    21    23   ar
    35    21    32    1
    36    22    25   ar
    37    22    33    1
    38    23    24   ar
    39    24    25   ar
    40    25    34    1
    41    26    35    1
    42    26    36    1
    43    27    38    1
    44    27    39    1
