@<TRIPOS>MOLECULE
IMPHY012760
 69 70 0 0 0
SMALL
GASTEIGER

@<TRIPOS>ATOM
      1 O           6.0682   -2.7638    0.0000 O.3     1  UNL1       -0.4854
      2 O           2.5381   -0.7396    0.0000 O.3     1  UNL1       -0.5067
      3 C           6.9343   -2.2638    0.0000 C.3     1  UNL1        0.1085
      4 C           6.9343   -1.2638    0.0000 C.3     1  UNL1       -0.0091
      5 C           7.9343   -2.2638    0.0000 C.3     1  UNL1       -0.0097
      6 C           6.0682   -0.7638    0.0000 C.3     1  UNL1       -0.0205
      7 C           7.4343   -3.1298    0.0000 C.3     1  UNL1       -0.0249
      8 C           5.2022   -1.2638    0.0000 C.ar    1  UNL1       -0.0018
      9 C           5.2022   -2.2638    0.0000 C.ar    1  UNL1        0.1276
     10 C           8.4343   -1.3978    0.0000 C.3     1  UNL1       -0.0309
     11 C           4.3083   -2.7984    0.0000 C.ar    1  UNL1       -0.0050
     12 C           4.3083   -0.7291    0.0000 C.ar    1  UNL1       -0.0135
     13 C           9.4343   -1.3978    0.0000 C.2     1  UNL1       -0.0849
     14 C           3.4022   -2.2846    0.0000 C.ar    1  UNL1       -0.0138
     15 C           3.4022   -1.2430    0.0000 C.ar    1  UNL1        0.1176
     16 C           9.9343   -0.5317    0.0000 C.2     1  UNL1       -0.0762
     17 C           4.3198   -3.7984    0.0000 C.3     1  UNL1       -0.0361
     18 C          10.9343   -0.5317    0.0000 C.3     1  UNL1       -0.0286
     19 C          11.4343    0.3343    0.0000 C.3     1  UNL1       -0.0308
     20 C           9.4343    0.3343    0.0000 C.3     1  UNL1       -0.0438
     21 C          12.4343    0.3343    0.0000 C.2     1  UNL1       -0.0847
     22 C          12.9343    1.2003    0.0000 C.2     1  UNL1       -0.0762
     23 C          13.9343    1.2003    0.0000 C.3     1  UNL1       -0.0286
     24 C          14.4343    2.0663    0.0000 C.3     1  UNL1       -0.0308
     25 C          12.4343    2.0663    0.0000 C.3     1  UNL1       -0.0438
     26 C          15.4343    2.0663    0.0000 C.2     1  UNL1       -0.0850
     27 C          15.9343    2.9324    0.0000 C.2     1  UNL1       -0.0796
     28 C          16.9343    2.9324    0.0000 C.3     1  UNL1       -0.0440
     29 C          15.4343    3.7984    0.0000 C.3     1  UNL1       -0.0440
     30 H           7.5449   -1.3714    0.0000 H       1  UNL1        0.0307
     31 H           7.1463   -0.6812    0.0000 H       1  UNL1        0.0307
     32 H           7.8266   -2.8744    0.0000 H       1  UNL1        0.0306
     33 H           8.5169   -2.4758    0.0000 H       1  UNL1        0.0306
     34 H           6.4668   -0.2888    0.0000 H       1  UNL1        0.0316
     35 H           5.6697   -0.2888    0.0000 H       1  UNL1        0.0316
     36 H           6.8973   -3.4398    0.0000 H       1  UNL1        0.0268
     37 H           7.7443   -3.6668    0.0000 H       1  UNL1        0.0268
     38 H           7.9712   -2.8198    0.0000 H       1  UNL1        0.0268
     39 H           8.5419   -0.7872    0.0000 H       1  UNL1        0.0309
     40 H           7.8517   -1.1857    0.0000 H       1  UNL1        0.0309
     41 H           4.3154   -0.1092    0.0000 H       1  UNL1        0.0658
     42 H           9.7443   -1.9347    0.0000 H       1  UNL1        0.0572
     43 H           2.8665   -2.5967    0.0000 H       1  UNL1        0.0658
     44 H           3.6999   -3.8056    0.0000 H       1  UNL1        0.0279
     45 H           4.3270   -4.4183    0.0000 H       1  UNL1        0.0279
     46 H           4.9398   -3.7912    0.0000 H       1  UNL1        0.0279
     47 H          10.8266   -1.1423    0.0000 H       1  UNL1        0.0313
     48 H          11.5169   -0.7438    0.0000 H       1  UNL1        0.0313
     49 H          11.5419    0.9449    0.0000 H       1  UNL1        0.0310
     50 H          10.8517    0.5463    0.0000 H       1  UNL1        0.0310
     51 H           9.9712    0.6443    0.0000 H       1  UNL1        0.0274
     52 H           9.1243    0.8712    0.0000 H       1  UNL1        0.0274
     53 H           8.8973    0.0243    0.0000 H       1  UNL1        0.0274
     54 H           2.0000   -1.0476    0.0000 H       1  UNL1        0.2921
     55 H          12.7443   -0.2027    0.0000 H       1  UNL1        0.0572
     56 H          13.8266    0.5897    0.0000 H       1  UNL1        0.0313
     57 H          14.5169    0.9883    0.0000 H       1  UNL1        0.0313
     58 H          14.5419    2.6769    0.0000 H       1  UNL1        0.0310
     59 H          13.8517    2.2784    0.0000 H       1  UNL1        0.0310
     60 H          12.9712    2.3763    0.0000 H       1  UNL1        0.0274
     61 H          12.1243    2.6033    0.0000 H       1  UNL1        0.0274
     62 H          11.8973    1.7563    0.0000 H       1  UNL1        0.0274
     63 H          15.7443    1.5294    0.0000 H       1  UNL1        0.0572
     64 H          16.9343    2.3124    0.0000 H       1  UNL1        0.0274
     65 H          17.5543    2.9324    0.0000 H       1  UNL1        0.0274
     66 H          16.9343    3.5524    0.0000 H       1  UNL1        0.0274
     67 H          15.9712    4.1084    0.0000 H       1  UNL1        0.0274
     68 H          15.1243    4.3353    0.0000 H       1  UNL1        0.0274
     69 H          14.8973    3.4884    0.0000 H       1  UNL1        0.0274
@<TRIPOS>BOND
     1     1     3    1
     2     1     9    1
     3     2    15    1
     4     2    54    1
     5     3     4    1
     6     3     5    1
     7     3     7    1
     8     4     6    1
     9     4    30    1
    10     4    31    1
    11     5    10    1
    12     5    32    1
    13     5    33    1
    14     6     8    1
    15     6    34    1
    16     6    35    1
    17     7    36    1
    18     7    37    1
    19     7    38    1
    20     8     9   ar
    21     8    12   ar
    22     9    11   ar
    23    10    13    1
    24    10    39    1
    25    10    40    1
    26    11    14   ar
    27    11    17    1
    28    12    15   ar
    29    12    41    1
    30    13    16    2
    31    13    42    1
    32    14    15   ar
    33    14    43    1
    34    16    18    1
    35    16    20    1
    36    17    44    1
    37    17    45    1
    38    17    46    1
    39    18    19    1
    40    18    47    1
    41    18    48    1
    42    19    21    1
    43    19    49    1
    44    19    50    1
    45    20    51    1
    46    20    52    1
    47    20    53    1
    48    21    22    2
    49    21    55    1
    50    22    23    1
    51    22    25    1
    52    23    24    1
    53    23    56    1
    54    23    57    1
    55    24    26    1
    56    24    58    1
    57    24    59    1
    58    25    60    1
    59    25    61    1
    60    25    62    1
    61    26    27    2
    62    26    63    1
    63    27    28    1
    64    27    29    1
    65    28    64    1
    66    28    65    1
    67    28    66    1
    68    29    67    1
    69    29    68    1
    70    29    69    1
