@<TRIPOS>MOLECULE
IMPHY011352
 78 85 0 0 0
SMALL
GASTEIGER

@<TRIPOS>ATOM
      1 O           4.3933    0.5772    0.0000 O.3     1  UNL1       -0.2988
      2 O           3.3710    1.1549    0.0000 O.3     1  UNL1       -0.3481
      3 O           4.5851    4.5499    0.0000 O.2     1  UNL1       -0.2735
      4 O           6.8554    1.3442    0.0000 O.2     1  UNL1       -0.2704
      5 O           5.3743   -1.6248    0.0000 O.2     1  UNL1       -0.2750
      6 N           3.5724    3.1448    0.0000 N.am    1  UNL1       -0.2900
      7 N           5.1950    1.9754    0.0000 N.am    1  UNL1       -0.2331
      8 N           6.2345   -0.1215    0.0000 N.am    1  UNL1       -0.2798
      9 N           8.9064   -1.6251    0.0000 N.3     1  UNL1       -0.2971
     10 N           9.8945   -5.8153    0.0000 N.ar    1  UNL1       -0.3604
     11 C           3.4717    2.1498    0.0000 C.3     1  UNL1        0.0987
     12 C           4.2830    1.5652    0.0000 C.3     1  UNL1        0.2691
     13 C           2.4996    1.9419    0.0000 C.3     1  UNL1       -0.0261
     14 C           5.2956    2.9704    0.0000 C.3     1  UNL1        0.1113
     15 C           2.6617    3.5432    0.0000 C.3     1  UNL1        0.0154
     16 C           2.0000    2.8013    0.0000 C.3     1  UNL1       -0.0352
     17 C           5.3666    0.3751    0.0000 C.3     1  UNL1        0.2150
     18 C           4.4844    3.5550    0.0000 C.2     1  UNL1        0.2371
     19 C           5.8610    1.2375    0.0000 C.2     1  UNL1        0.2707
     20 C           6.2076    3.3806    0.0000 C.3     1  UNL1       -0.0003
     21 C           5.1624   -0.6038    0.0000 C.3     1  UNL1       -0.0096
     22 C           7.1063   -1.6182    0.0000 C.3     1  UNL1        0.0670
     23 C           8.8904   -2.6666    0.0000 C.3     1  UNL1        0.0397
     24 C           6.2384   -1.1215    0.0000 C.2     1  UNL1        0.2235
     25 C           6.3083    4.3755    0.0000 C.ar    1  UNL1       -0.0451
     26 C           8.0084   -1.0974    0.0000 C.3     1  UNL1        0.0138
     27 C           8.0244   -3.1666    0.0000 C.2     1  UNL1       -0.0254
     28 C           9.7564   -3.1666    0.0000 C.3     1  UNL1       -0.0059
     29 C           7.1144   -2.6598    0.0000 C.2     1  UNL1       -0.0658
     30 C           8.0244   -4.1666    0.0000 C.ar    1  UNL1       -0.0112
     31 C           9.7564   -4.1666    0.0000 C.ar    1  UNL1       -0.0200
     32 C           8.8904   -4.6666    0.0000 C.ar    1  UNL1        0.0103
     33 C           9.7782   -1.1352    0.0000 C.3     1  UNL1       -0.0121
     34 C           5.4970    4.9602    0.0000 C.ar    1  UNL1       -0.0585
     35 C           7.2203    4.7858    0.0000 C.ar    1  UNL1       -0.0585
     36 C           8.9064   -5.7081    0.0000 C.ar    1  UNL1        0.0473
     37 C          10.3743   -4.9450    0.0000 C.ar    1  UNL1        0.0060
     38 C           7.1144   -4.6735    0.0000 C.ar    1  UNL1       -0.0536
     39 C           8.0084   -6.2359    0.0000 C.ar    1  UNL1       -0.0378
     40 C           5.5977    5.9551    0.0000 C.ar    1  UNL1       -0.0615
     41 C           7.3210    5.7807    0.0000 C.ar    1  UNL1       -0.0615
     42 C           7.1063   -5.7151    0.0000 C.ar    1  UNL1       -0.0592
     43 C           6.5097    6.3654    0.0000 C.ar    1  UNL1       -0.0617
     44 H           4.2469    2.4986    0.0000 H       1  UNL1        0.0572
     45 H           1.9338    1.6884    0.0000 H       1  UNL1        0.0286
     46 H           2.6923    1.3526    0.0000 H       1  UNL1        0.0286
     47 H           5.7986    2.6079    0.0000 H       1  UNL1        0.0602
     48 H           2.9685    4.0820    0.0000 H       1  UNL1        0.0465
     49 H           2.1582    3.9050    0.0000 H       1  UNL1        0.0465
     50 H           1.5832    3.2604    0.0000 H       1  UNL1        0.0281
     51 H           1.4997    2.4351    0.0000 H       1  UNL1        0.0281
     52 H           6.3599    2.7796    0.0000 H       1  UNL1        0.0336
     53 H           6.8259    3.4262    0.0000 H       1  UNL1        0.0336
     54 H           3.3086    0.5381    0.0000 H       1  UNL1        0.2145
     55 H           6.7703    0.1906    0.0000 H       1  UNL1        0.1519
     56 H           4.5555   -0.4772    0.0000 H       1  UNL1        0.0279
     57 H           5.0359   -1.2107    0.0000 H       1  UNL1        0.0279
     58 H           5.7694   -0.7304    0.0000 H       1  UNL1        0.0279
     59 H           6.5712   -1.9313    0.0000 H       1  UNL1        0.0450
     60 H           9.6298   -2.2473    0.0000 H       1  UNL1        0.0515
     61 H           8.4094   -0.6245    0.0000 H       1  UNL1        0.0437
     62 H           7.6111   -0.6214    0.0000 H       1  UNL1        0.0437
     63 H          10.3670   -3.2743    0.0000 H       1  UNL1        0.0332
     64 H           9.9685   -2.5840    0.0000 H       1  UNL1        0.0332
     65 H           6.5810   -2.9760    0.0000 H       1  UNL1        0.0583
     66 H          10.0820   -1.6756    0.0000 H       1  UNL1        0.0391
     67 H          10.3187   -0.8314    0.0000 H       1  UNL1        0.0391
     68 H           9.4744   -0.5947    0.0000 H       1  UNL1        0.0391
     69 H           4.9316    4.7058    0.0000 H       1  UNL1        0.0620
     70 H           7.7233    4.4233    0.0000 H       1  UNL1        0.0620
     71 H          10.9922   -4.8932    0.0000 H       1  UNL1        0.0810
     72 H           6.5810   -4.3573    0.0000 H       1  UNL1        0.0624
     73 H          10.1805   -6.3654    0.0000 H       1  UNL1        0.1653
     74 H           8.0108   -6.8559    0.0000 H       1  UNL1        0.0638
     75 H           5.0947    6.3176    0.0000 H       1  UNL1        0.0618
     76 H           7.8864    6.0350    0.0000 H       1  UNL1        0.0618
     77 H           6.5682   -6.0230    0.0000 H       1  UNL1        0.0618
     78 H           6.5721    6.9822    0.0000 H       1  UNL1        0.0618
@<TRIPOS>BOND
     1     1    12    1
     2     1    17    1
     3    12     2    1
     4     2    54    1
     5     3    18    2
     6     4    19    2
     7     5    24    2
     8     6    11    1
     9     6    15    1
    10     6    18   am
    11     7    12    1
    12     7    14    1
    13     7    19   am
    14    17     8    1
    15     8    24   am
    16     8    55    1
    17     9    23    1
    18     9    26    1
    19     9    33    1
    20    10    36   ar
    21    10    37   ar
    22    10    73    1
    23    11    12    1
    24    11    13    1
    25    11    44    1
    26    13    16    1
    27    13    45    1
    28    13    46    1
    29    14    18    1
    30    14    20    1
    31    14    47    1
    32    15    16    1
    33    15    48    1
    34    15    49    1
    35    16    50    1
    36    16    51    1
    37    17    19    1
    38    17    21    1
    39    20    25    1
    40    20    52    1
    41    20    53    1
    42    21    56    1
    43    21    57    1
    44    21    58    1
    45    22    24    1
    46    22    26    1
    47    22    29    1
    48    22    59    1
    49    23    27    1
    50    23    28    1
    51    23    60    1
    52    25    34   ar
    53    25    35   ar
    54    26    61    1
    55    26    62    1
    56    27    29    2
    57    27    30    1
    58    28    31    1
    59    28    63    1
    60    28    64    1
    61    29    65    1
    62    30    32   ar
    63    30    38   ar
    64    31    32   ar
    65    31    37   ar
    66    32    36   ar
    67    33    66    1
    68    33    67    1
    69    33    68    1
    70    34    40   ar
    71    34    69    1
    72    35    41   ar
    73    35    70    1
    74    36    39   ar
    75    37    71    1
    76    38    42   ar
    77    38    72    1
    78    39    42   ar
    79    39    74    1
    80    40    43   ar
    81    40    75    1
    82    41    43   ar
    83    41    76    1
    84    42    77    1
    85    43    78    1
