@<TRIPOS>MOLECULE
IMPHY016321
 25 25 0 0 0
SMALL
GASTEIGER

@<TRIPOS>ATOM
      1 O           4.5981    1.8450    0.0000 O.3     1  UNL1       -0.5065
      2 C           3.7320    0.3450    0.0000 C.ar    1  UNL1       -0.0062
      3 C           5.4641   -0.6550    0.0000 C.ar    1  UNL1       -0.0442
      4 C           2.8660    0.8450    0.0000 C.3     1  UNL1       -0.0271
      5 C           6.3301   -1.1550    0.0000 C.3     1  UNL1       -0.0304
      6 C           4.5981    0.8450    0.0000 C.ar    1  UNL1        0.1203
      7 C           5.4641    0.3450    0.0000 C.ar    1  UNL1       -0.0167
      8 C           3.7320   -0.6550    0.0000 C.ar    1  UNL1       -0.0549
      9 C           4.5981   -1.1550    0.0000 C.ar    1  UNL1       -0.0581
     10 C           2.0000    0.3450    0.0000 C.3     1  UNL1       -0.0611
     11 C           6.3301   -2.1550    0.0000 C.3     1  UNL1       -0.0613
     12 H           3.2646    1.3200    0.0000 H       1  UNL1        0.0312
     13 H           2.4675    1.3200    0.0000 H       1  UNL1        0.0312
     14 H           6.9407   -1.2627    0.0000 H       1  UNL1        0.0311
     15 H           6.5422   -0.5724    0.0000 H       1  UNL1        0.0311
     16 H           6.0010    0.6550    0.0000 H       1  UNL1        0.0657
     17 H           3.1951   -0.9650    0.0000 H       1  UNL1        0.0622
     18 H           4.5981   -1.7750    0.0000 H       1  UNL1        0.0620
     19 H           1.6900    0.8819    0.0000 H       1  UNL1        0.0233
     20 H           1.4631    0.0350    0.0000 H       1  UNL1        0.0233
     21 H           2.3100   -0.1919    0.0000 H       1  UNL1        0.0233
     22 H           5.7101   -2.1550    0.0000 H       1  UNL1        0.0233
     23 H           6.3301   -2.7750    0.0000 H       1  UNL1        0.0233
     24 H           6.9501   -2.1550    0.0000 H       1  UNL1        0.0233
     25 H           5.1350    2.1550    0.0000 H       1  UNL1        0.2921
@<TRIPOS>BOND
     1     1     6    1
     2     1    25    1
     3     2     4    1
     4     2     6   ar
     5     2     8   ar
     6     3     5    1
     7     3     7   ar
     8     3     9   ar
     9     4    10    1
    10     4    12    1
    11     4    13    1
    12     5    11    1
    13     5    14    1
    14     5    15    1
    15     6     7   ar
    16     7    16    1
    17     8     9   ar
    18     8    17    1
    19     9    18    1
    20    10    19    1
    21    10    20    1
    22    10    21    1
    23    11    22    1
    24    11    23    1
    25    11    24    1
