@<TRIPOS>MOLECULE
IMPHY010151
 60 62 0 0 0
SMALL
GASTEIGER

@<TRIPOS>ATOM
      1 O           6.0682    1.2450    0.0000 O.2     1  UNL1       -0.2914
      2 O           6.0682   -2.7550    0.0000 O.2     1  UNL1       -0.2917
      3 O           2.5381    0.2692    0.0000 O.3     1  UNL1       -0.5031
      4 O           2.5381   -1.7791    0.0000 O.3     1  UNL1       -0.5028
      5 O           3.4597   -3.2995    0.0000 O.2     1  UNL1       -0.2956
      6 C           6.9343   -0.2550    0.0000 C.3     1  UNL1        0.0476
      7 C           6.9343   -1.2550    0.0000 C.3     1  UNL1        0.0385
      8 C           7.8282    0.2797    0.0000 C.3     1  UNL1       -0.0036
      9 C           7.8282   -1.7896    0.0000 C.3     1  UNL1       -0.0237
     10 C           6.0682    0.2450    0.0000 C.2     1  UNL1        0.1713
     11 C           8.7343   -0.2341    0.0000 C.2     1  UNL1       -0.0722
     12 C           6.9343    0.7450    0.0000 C.3     1  UNL1       -0.0513
     13 C           6.0682   -1.7550    0.0000 C.2     1  UNL1        0.1689
     14 C           7.8167    1.2796    0.0000 C.3     1  UNL1       -0.0271
     15 C           5.2022   -0.2550    0.0000 C.ar    1  UNL1        0.0362
     16 C           8.7343   -1.2758    0.0000 C.2     1  UNL1       -0.0840
     17 C           5.2022   -1.2550    0.0000 C.ar    1  UNL1        0.0424
     18 C           4.3083    0.2797    0.0000 C.ar    1  UNL1        0.0114
     19 C           9.5984    0.2692    0.0000 C.3     1  UNL1       -0.0435
     20 C           4.3083   -1.7896    0.0000 C.ar    1  UNL1        0.0703
     21 C           8.6768    1.7896    0.0000 C.2     1  UNL1       -0.0847
     22 C           4.3198    1.2796    0.0000 C.3     1  UNL1       -0.0173
     23 C           3.4022   -0.2341    0.0000 C.ar    1  UNL1        0.1631
     24 C           3.4022   -1.2758    0.0000 C.ar    1  UNL1        0.1696
     25 C           8.6653    2.7896    0.0000 C.2     1  UNL1       -0.0796
     26 C           3.4597    1.7896    0.0000 C.3     1  UNL1       -0.0585
     27 C           5.1916    1.7696    0.0000 C.3     1  UNL1       -0.0585
     28 C           4.3198   -2.7896    0.0000 C.2     1  UNL1        0.1545
     29 C           9.5255    3.2995    0.0000 C.3     1  UNL1       -0.0440
     30 C           7.7935    3.2795    0.0000 C.3     1  UNL1       -0.0440
     31 H           6.9295   -1.8749    0.0000 H       1  UNL1        0.0394
     32 H           8.3621    0.5949    0.0000 H       1  UNL1        0.0358
     33 H           7.4236   -2.2594    0.0000 H       1  UNL1        0.0315
     34 H           8.2218   -2.2686    0.0000 H       1  UNL1        0.0315
     35 H           7.5543    0.7450    0.0000 H       1  UNL1        0.0240
     36 H           6.9343    1.3650    0.0000 H       1  UNL1        0.0240
     37 H           6.3143    0.7450    0.0000 H       1  UNL1        0.0240
     38 H           7.5979    1.8598    0.0000 H       1  UNL1        0.0313
     39 H           7.2074    1.1649    0.0000 H       1  UNL1        0.0313
     40 H           9.2700   -1.5878    0.0000 H       1  UNL1        0.0572
     41 H           9.9105   -0.2665    0.0000 H       1  UNL1        0.0274
     42 H          10.1341    0.5813    0.0000 H       1  UNL1        0.0274
     43 H           9.2863    0.8049    0.0000 H       1  UNL1        0.0274
     44 H           9.2173    1.4858    0.0000 H       1  UNL1        0.0572
     45 H           4.3270    1.8996    0.0000 H       1  UNL1        0.0345
     46 H           3.7758    2.3229    0.0000 H       1  UNL1        0.0235
     47 H           2.9263    2.1058    0.0000 H       1  UNL1        0.0235
     48 H           3.1435    1.2563    0.0000 H       1  UNL1        0.0235
     49 H           5.4954    1.2291    0.0000 H       1  UNL1        0.0235
     50 H           5.7321    2.0734    0.0000 H       1  UNL1        0.0235
     51 H           4.8878    2.3101    0.0000 H       1  UNL1        0.0235
     52 H           4.8603   -3.0933    0.0000 H       1  UNL1        0.1083
     53 H           2.0000   -0.0387    0.0000 H       1  UNL1        0.2923
     54 H           8.0973    3.8200    0.0000 H       1  UNL1        0.0274
     55 H           7.2530    3.5833    0.0000 H       1  UNL1        0.0274
     56 H           7.4898    2.7390    0.0000 H       1  UNL1        0.0274
     57 H           9.8416    2.7662    0.0000 H       1  UNL1        0.0274
     58 H          10.0588    3.6157    0.0000 H       1  UNL1        0.0274
     59 H           9.2093    3.8328    0.0000 H       1  UNL1        0.0274
     60 H           2.0000   -1.4712    0.0000 H       1  UNL1        0.2923
@<TRIPOS>BOND
     1     1    10    2
     2     2    13    2
     3     3    23    1
     4     3    53    1
     5     4    24    1
     6     4    60    1
     7     5    28    2
     8     6     7    1
     9     6     8    1
    10     6    10    1
    11     6    12    1
    12     7     9    1
    13     7    13    1
    14     7    31    1
    15     8    11    1
    16     8    14    1
    17     8    32    1
    18     9    16    1
    19     9    33    1
    20     9    34    1
    21    10    15    1
    22    11    16    2
    23    11    19    1
    24    12    35    1
    25    12    36    1
    26    12    37    1
    27    13    17    1
    28    14    21    1
    29    14    38    1
    30    14    39    1
    31    15    17   ar
    32    15    18   ar
    33    16    40    1
    34    17    20   ar
    35    18    22    1
    36    18    23   ar
    37    19    41    1
    38    19    42    1
    39    19    43    1
    40    20    24   ar
    41    20    28    1
    42    21    25    2
    43    21    44    1
    44    22    26    1
    45    22    27    1
    46    22    45    1
    47    23    24   ar
    48    25    29    1
    49    25    30    1
    50    26    46    1
    51    26    47    1
    52    26    48    1
    53    27    49    1
    54    27    50    1
    55    27    51    1
    56    28    52    1
    57    29    57    1
    58    29    58    1
    59    29    59    1
    60    30    54    1
    61    30    55    1
    62    30    56    1
