@<TRIPOS>MOLECULE
IMPHY007654
 64 66 0 0 0
SMALL
GASTEIGER

@<TRIPOS>ATOM
      1 O           2.8660    0.2500    0.0000 O.3     1  UNL1       -0.4947
      2 O           6.3301   -1.7500    0.0000 O.3     1  UNL1       -0.4914
      3 O           4.5981   -2.7500    0.0000 O.3     1  UNL1       -0.4913
      4 O           7.1962   -0.2500    0.0000 O.3     1  UNL1       -0.4944
      5 O          10.6603    1.7500    0.0000 O.3     1  UNL1       -0.4914
      6 O          10.6603   -0.2500    0.0000 O.3     1  UNL1       -0.4913
      7 C           5.4641    1.7500    0.0000 C.3     1  UNL1       -0.0119
      8 C           4.5981    1.2500    0.0000 C.3     1  UNL1        0.0120
      9 C           5.4641    2.7500    0.0000 C.3     1  UNL1       -0.0425
     10 C           4.5981    3.2500    0.0000 C.3     1  UNL1       -0.0342
     11 C           3.7320    1.7500    0.0000 C.2     1  UNL1       -0.0798
     12 C           4.5981    0.2500    0.0000 C.ar    1  UNL1        0.0053
     13 C           3.7320    2.7500    0.0000 C.2     1  UNL1       -0.0873
     14 C           6.3301    1.2500    0.0000 C.2     1  UNL1       -0.0794
     15 C           3.7320   -0.2500    0.0000 C.ar    1  UNL1        0.1275
     16 C           5.4641   -0.2500    0.0000 C.ar    1  UNL1       -0.0091
     17 C           7.1962    1.7500    0.0000 C.2     1  UNL1       -0.0546
     18 C           5.4641   -1.2500    0.0000 C.ar    1  UNL1        0.1620
     19 C           3.7320   -1.2500    0.0000 C.ar    1  UNL1        0.0257
     20 C           4.5981   -1.7500    0.0000 C.ar    1  UNL1        0.1650
     21 C           8.0622    1.2500    0.0000 C.ar    1  UNL1        0.0201
     22 C           8.0622    0.2500    0.0000 C.ar    1  UNL1        0.1309
     23 C           8.9282    1.7500    0.0000 C.ar    1  UNL1       -0.0057
     24 C           2.0000   -0.2500    0.0000 C.3     1  UNL1        0.0788
     25 C           9.7942    1.2500    0.0000 C.ar    1  UNL1        0.1623
     26 C           8.9282   -0.2500    0.0000 C.ar    1  UNL1        0.0260
     27 C           9.7942    0.2500    0.0000 C.ar    1  UNL1        0.1650
     28 C           6.3301   -2.7500    0.0000 C.3     1  UNL1        0.0790
     29 C           3.7320   -3.2500    0.0000 C.3     1  UNL1        0.0790
     30 C           7.1962   -1.2500    0.0000 C.3     1  UNL1        0.0788
     31 C          10.6603    2.7500    0.0000 C.3     1  UNL1        0.0790
     32 C          10.6603   -1.2500    0.0000 C.3     1  UNL1        0.0790
     33 H           5.4641    1.1300    0.0000 H       1  UNL1        0.0352
     34 H           3.8620    0.8250    0.0000 H       1  UNL1        0.0398
     35 H           6.0747    2.6423    0.0000 H       1  UNL1        0.0274
     36 H           5.6762    3.3326    0.0000 H       1  UNL1        0.0274
     37 H           4.9966    3.7250    0.0000 H       1  UNL1        0.0308
     38 H           4.1996    3.7250    0.0000 H       1  UNL1        0.0308
     39 H           3.1951    1.4400    0.0000 H       1  UNL1        0.0575
     40 H           3.1951    3.0600    0.0000 H       1  UNL1        0.0569
     41 H           6.3301    0.6300    0.0000 H       1  UNL1        0.0575
     42 H           6.0010    0.0600    0.0000 H       1  UNL1        0.0659
     43 H           7.1962    2.3700    0.0000 H       1  UNL1        0.0622
     44 H           3.1951   -1.5600    0.0000 H       1  UNL1        0.0692
     45 H           8.9282    2.3700    0.0000 H       1  UNL1        0.0662
     46 H           1.6900    0.2869    0.0000 H       1  UNL1        0.0660
     47 H           1.4631   -0.5600    0.0000 H       1  UNL1        0.0660
     48 H           2.3100   -0.7869    0.0000 H       1  UNL1        0.0660
     49 H           8.9282   -0.8700    0.0000 H       1  UNL1        0.0692
     50 H           5.7101   -2.7500    0.0000 H       1  UNL1        0.0660
     51 H           6.3301   -3.3700    0.0000 H       1  UNL1        0.0660
     52 H           6.9501   -2.7500    0.0000 H       1  UNL1        0.0660
     53 H           3.4220   -2.7131    0.0000 H       1  UNL1        0.0660
     54 H           3.1951   -3.5600    0.0000 H       1  UNL1        0.0660
     55 H           4.0420   -3.7869    0.0000 H       1  UNL1        0.0660
     56 H           6.5762   -1.2500    0.0000 H       1  UNL1        0.0660
     57 H           7.1962   -1.8700    0.0000 H       1  UNL1        0.0660
     58 H           7.8162   -1.2500    0.0000 H       1  UNL1        0.0660
     59 H          11.2803    2.7500    0.0000 H       1  UNL1        0.0660
     60 H          10.6603    3.3700    0.0000 H       1  UNL1        0.0660
     61 H          10.0403    2.7500    0.0000 H       1  UNL1        0.0660
     62 H          10.0403   -1.2500    0.0000 H       1  UNL1        0.0660
     63 H          10.6603   -1.8700    0.0000 H       1  UNL1        0.0660
     64 H          11.2803   -1.2500    0.0000 H       1  UNL1        0.0660
@<TRIPOS>BOND
     1     1    15    1
     2     1    24    1
     3     2    18    1
     4     2    28    1
     5     3    20    1
     6     3    29    1
     7     4    22    1
     8     4    30    1
     9     5    25    1
    10     5    31    1
    11     6    27    1
    12     6    32    1
    13     7     8    1
    14     7     9    1
    15     7    14    1
    16     7    33    1
    17     8    11    1
    18     8    12    1
    19     8    34    1
    20     9    10    1
    21     9    35    1
    22     9    36    1
    23    10    13    1
    24    10    37    1
    25    10    38    1
    26    11    13    2
    27    11    39    1
    28    12    15   ar
    29    12    16   ar
    30    13    40    1
    31    14    17    2
    32    14    41    1
    33    15    19   ar
    34    16    18   ar
    35    16    42    1
    36    17    21    1
    37    17    43    1
    38    18    20   ar
    39    19    20   ar
    40    19    44    1
    41    21    22   ar
    42    21    23   ar
    43    22    26   ar
    44    23    25   ar
    45    23    45    1
    46    24    46    1
    47    24    47    1
    48    24    48    1
    49    25    27   ar
    50    26    27   ar
    51    26    49    1
    52    28    50    1
    53    28    51    1
    54    28    52    1
    55    29    53    1
    56    29    54    1
    57    29    55    1
    58    30    56    1
    59    30    57    1
    60    30    58    1
    61    31    59    1
    62    31    60    1
    63    31    61    1
    64    32    62    1
    65    32    63    1
    66    32    64    1
