@<TRIPOS>MOLECULE
IMPHY012186
 47 49 0 0 0
SMALL
GASTEIGER

@<TRIPOS>ATOM
      1 O           6.3904   -1.5209    0.0000 O.3     1  UNL1       -0.4855
      2 O           4.6420    1.5137    0.0000 O.3     1  UNL1       -0.5063
      3 C           7.2564   -0.0209    0.0000 C.3     1  UNL1        0.0091
      4 C           6.3904    0.4791    0.0000 C.3     1  UNL1        0.0158
      5 C           7.2564   -1.0209    0.0000 C.3     1  UNL1        0.1087
      6 C           8.1664    0.4860    0.0000 C.3     1  UNL1       -0.0421
      7 C           5.5243   -0.0209    0.0000 C.ar    1  UNL1        0.0428
      8 C           8.1744    1.5276    0.0000 C.3     1  UNL1       -0.0316
      9 C           6.3743    1.5206    0.0000 C.2     1  UNL1       -0.0770
     10 C           7.2723    2.0484    0.0000 C.2     1  UNL1       -0.0759
     11 C           5.5243   -1.0209    0.0000 C.ar    1  UNL1        0.1288
     12 C           7.7564   -1.8869    0.0000 C.3     1  UNL1       -0.0249
     13 C           8.2564   -1.0209    0.0000 C.3     1  UNL1       -0.0249
     14 C           4.6304    0.5138    0.0000 C.ar    1  UNL1        0.1243
     15 C           4.6304   -1.5556    0.0000 C.ar    1  UNL1       -0.0162
     16 C           7.2685    3.0484    0.0000 C.3     1  UNL1       -0.0438
     17 C           3.7243   -1.0417    0.0000 C.ar    1  UNL1       -0.0405
     18 C           3.7243   -0.0001    0.0000 C.ar    1  UNL1       -0.0165
     19 C           2.8602   -1.5450    0.0000 C.3     1  UNL1       -0.0277
     20 C           2.8641   -2.5450    0.0000 C.3     1  UNL1       -0.0519
     21 C           2.0000   -3.0484    0.0000 C.3     1  UNL1       -0.0650
     22 H           7.7909   -0.3350    0.0000 H       1  UNL1        0.0348
     23 H           6.9249    0.7932    0.0000 H       1  UNL1        0.0398
     24 H           8.3709   -0.0993    0.0000 H       1  UNL1        0.0272
     25 H           8.7780    0.5873    0.0000 H       1  UNL1        0.0272
     26 H           8.7844    1.4168    0.0000 H       1  UNL1        0.0310
     27 H           8.3880    2.1096    0.0000 H       1  UNL1        0.0310
     28 H           5.8338    1.8244    0.0000 H       1  UNL1        0.0578
     29 H           7.2194   -2.1969    0.0000 H       1  UNL1        0.0268
     30 H           8.0664   -2.4238    0.0000 H       1  UNL1        0.0268
     31 H           8.2933   -1.5769    0.0000 H       1  UNL1        0.0268
     32 H           8.2564   -1.6409    0.0000 H       1  UNL1        0.0268
     33 H           8.8764   -1.0209    0.0000 H       1  UNL1        0.0268
     34 H           8.2564   -0.4009    0.0000 H       1  UNL1        0.0268
     35 H           4.6376   -2.1755    0.0000 H       1  UNL1        0.0657
     36 H           7.8885    3.0508    0.0000 H       1  UNL1        0.0274
     37 H           7.2661    3.6684    0.0000 H       1  UNL1        0.0274
     38 H           6.6485    3.0460    0.0000 H       1  UNL1        0.0274
     39 H           3.1886    0.3120    0.0000 H       1  UNL1        0.0657
     40 H           2.6459   -0.9632    0.0000 H       1  UNL1        0.0313
     41 H           2.2501   -1.6550    0.0000 H       1  UNL1        0.0313
     42 H           4.1086    1.8299    0.0000 H       1  UNL1        0.2921
     43 H           3.0784   -3.1268    0.0000 H       1  UNL1        0.0266
     44 H           3.4742   -2.4350    0.0000 H       1  UNL1        0.0266
     45 H           1.6879   -2.5126    0.0000 H       1  UNL1        0.0230
     46 H           1.4643   -3.3604    0.0000 H       1  UNL1        0.0230
     47 H           2.3121   -3.5841    0.0000 H       1  UNL1        0.0230
@<TRIPOS>BOND
     1     1     5    1
     2     1    11    1
     3     2    14    1
     4     2    42    1
     5     3     4    1
     6     3     5    1
     7     3     6    1
     8     3    22    1
     9     4     7    1
    10     4     9    1
    11     4    23    1
    12     5    12    1
    13     5    13    1
    14     6     8    1
    15     6    24    1
    16     6    25    1
    17     7    11   ar
    18     7    14   ar
    19     8    10    1
    20     8    26    1
    21     8    27    1
    22     9    10    2
    23     9    28    1
    24    10    16    1
    25    11    15   ar
    26    12    29    1
    27    12    30    1
    28    12    31    1
    29    13    32    1
    30    13    33    1
    31    13    34    1
    32    14    18   ar
    33    15    17   ar
    34    15    35    1
    35    16    36    1
    36    16    37    1
    37    16    38    1
    38    17    18   ar
    39    17    19    1
    40    18    39    1
    41    19    20    1
    42    19    40    1
    43    19    41    1
    44    20    21    1
    45    20    43    1
    46    20    44    1
    47    21    45    1
    48    21    46    1
    49    21    47    1
