@<TRIPOS>MOLECULE
IMPHY002216
 34 37 0 0 0
SMALL
GASTEIGER

@<TRIPOS>ATOM
      1 O           3.7841    3.1138    0.0000 O.2     1  UNL1       -0.5032
      2 O           2.0520    2.1138    0.0000 O.2     1  UNL1       -0.2834
      3 O           9.0258   -2.8040    0.0000 O.3     1  UNL1       -0.5068
      4 C           3.7841    0.1138    0.0000 C.ar    1  UNL1        0.0003
      5 C           4.6501    0.6138    0.0000 C.ar    1  UNL1       -0.0125
      6 C           3.8001   -0.9277    0.0000 C.ar    1  UNL1       -0.0161
      7 C           2.9180    0.6138    0.0000 C.ar    1  UNL1        0.0336
      8 C           5.5230   -0.8726    0.0000 C.ar    1  UNL1       -0.0167
      9 C           5.5095    0.1191    0.0000 C.ar    1  UNL1       -0.0461
     10 C           4.6772   -1.3904    0.0000 C.ar    1  UNL1       -0.0462
     11 C           4.6501    1.6138    0.0000 C.2     1  UNL1       -0.0086
     12 C           2.9021   -1.4554    0.0000 C.ar    1  UNL1       -0.0540
     13 C           2.9180    1.6138    0.0000 C.2     1  UNL1        0.2277
     14 C           6.3987   -1.3554    0.0000 C.ar    1  UNL1       -0.0176
     15 C           2.0080    0.1070    0.0000 C.ar    1  UNL1       -0.0502
     16 C           3.7841    2.1138    0.0000 C.2     1  UNL1        0.1647
     17 C           2.0000   -0.9346    0.0000 C.ar    1  UNL1       -0.0605
     18 C           6.4184   -2.3552    0.0000 C.ar    1  UNL1       -0.0506
     19 C           7.2547   -0.8384    0.0000 C.ar    1  UNL1       -0.0506
     20 C           7.2941   -2.8381    0.0000 C.ar    1  UNL1       -0.0196
     21 C           8.1304   -1.3213    0.0000 C.ar    1  UNL1       -0.0196
     22 C           8.1501   -2.3211    0.0000 C.ar    1  UNL1        0.1169
     23 H           6.0442    0.4330    0.0000 H       1  UNL1        0.0630
     24 H           4.6971   -2.0101    0.0000 H       1  UNL1        0.0630
     25 H           5.1870    1.9238    0.0000 H       1  UNL1        0.0661
     26 H           2.9045   -2.0754    0.0000 H       1  UNL1        0.0624
     27 H           1.4747    0.4232    0.0000 H       1  UNL1        0.0625
     28 H           1.4619   -1.2425    0.0000 H       1  UNL1        0.0618
     29 H           5.8876   -2.6757    0.0000 H       1  UNL1        0.0625
     30 H           7.2425   -0.2186    0.0000 H       1  UNL1        0.0625
     31 H           7.3063   -3.4579    0.0000 H       1  UNL1        0.0654
     32 H           8.6611   -1.0008    0.0000 H       1  UNL1        0.0654
     33 H           4.3210    3.4238    0.0000 H       1  UNL1        0.2923
     34 H           9.0380   -3.4238    0.0000 H       1  UNL1        0.2921
@<TRIPOS>BOND
     1     1    16    1
     2     1    33    1
     3     2    13    2
     4     3    22    1
     5     3    34    1
     6     4     5   ar
     7     4     6   ar
     8     4     7   ar
     9     5     9   ar
    10     5    11    1
    11     6    10   ar
    12     6    12   ar
    13     7    13    1
    14     7    15   ar
    15     8     9   ar
    16     8    10   ar
    17     8    14    1
    18     9    23    1
    19    10    24    1
    20    11    16    2
    21    11    25    1
    22    12    17   ar
    23    12    26    1
    24    13    16    1
    25    14    18   ar
    26    14    19   ar
    27    15    17   ar
    28    15    27    1
    29    17    28    1
    30    18    20   ar
    31    18    29    1
    32    19    21   ar
    33    19    30    1
    34    20    22   ar
    35    20    31    1
    36    21    22   ar
    37    21    32    1
