@<TRIPOS>MOLECULE
IMPHY001740
 44 45 0 0 0
SMALL
GASTEIGER

@<TRIPOS>ATOM
      1 O           4.0981    4.0880    0.0000 O.3     1  UNL1       -0.3653
      2 O           2.8660   -4.7780    0.0000 O.3     1  UNL1       -0.5068
      3 C           5.0981    4.0880    0.0000 C.3     1  UNL1        0.0904
      4 C           4.5981    3.2220    0.0000 C.3     1  UNL1        0.0879
      5 C           4.5981    2.2220    0.0000 C.3     1  UNL1       -0.0228
      6 C           3.7320    1.7220    0.0000 C.3     1  UNL1       -0.0383
      7 C           5.0981    5.0880    0.0000 C.3     1  UNL1       -0.0336
      8 C           5.9641    3.5880    0.0000 C.3     1  UNL1       -0.0336
      9 C           3.7320    0.7220    0.0000 C.3     1  UNL1        0.0041
     10 C           2.7320    0.7220    0.0000 C.3     1  UNL1       -0.0526
     11 C           3.7320   -0.2780    0.0000 C.2     1  UNL1       -0.0738
     12 C           4.7320    0.7220    0.0000 C.2     1  UNL1       -0.0815
     13 C           2.8660   -0.7780    0.0000 C.2     1  UNL1       -0.0577
     14 C           5.2320    1.5880    0.0000 C.2     1  UNL1       -0.1018
     15 C           2.8660   -1.7780    0.0000 C.ar    1  UNL1       -0.0251
     16 C           2.0000   -2.2780    0.0000 C.ar    1  UNL1       -0.0512
     17 C           3.7320   -2.2780    0.0000 C.ar    1  UNL1       -0.0512
     18 C           2.0000   -3.2780    0.0000 C.ar    1  UNL1       -0.0196
     19 C           3.7320   -3.2780    0.0000 C.ar    1  UNL1       -0.0196
     20 C           2.8660   -3.7780    0.0000 C.ar    1  UNL1        0.1169
     21 H           3.9992    3.0615    0.0000 H       1  UNL1        0.0625
     22 H           4.8101    1.6394    0.0000 H       1  UNL1        0.0291
     23 H           5.2087    2.3296    0.0000 H       1  UNL1        0.0291
     24 H           3.5200    2.3046    0.0000 H       1  UNL1        0.0277
     25 H           3.1215    1.6143    0.0000 H       1  UNL1        0.0277
     26 H           5.7181    5.0880    0.0000 H       1  UNL1        0.0258
     27 H           5.6541    3.0511    0.0000 H       1  UNL1        0.0258
     28 H           6.5010    3.2780    0.0000 H       1  UNL1        0.0258
     29 H           6.2741    4.1250    0.0000 H       1  UNL1        0.0258
     30 H           5.0981    5.7080    0.0000 H       1  UNL1        0.0258
     31 H           4.4781    5.0880    0.0000 H       1  UNL1        0.0258
     32 H           2.7320    1.3420    0.0000 H       1  UNL1        0.0241
     33 H           2.1120    0.7220    0.0000 H       1  UNL1        0.0241
     34 H           2.7320    0.1020    0.0000 H       1  UNL1        0.0241
     35 H           4.2690   -0.5880    0.0000 H       1  UNL1        0.0581
     36 H           5.0420    0.1851    0.0000 H       1  UNL1        0.0575
     37 H           2.3291   -0.4680    0.0000 H       1  UNL1        0.0621
     38 H           5.8520    1.5880    0.0000 H       1  UNL1        0.0532
     39 H           4.9220    2.1250    0.0000 H       1  UNL1        0.0532
     40 H           1.4631   -1.9680    0.0000 H       1  UNL1        0.0625
     41 H           4.2690   -1.9680    0.0000 H       1  UNL1        0.0625
     42 H           1.4631   -3.5880    0.0000 H       1  UNL1        0.0654
     43 H           4.2690   -3.5880    0.0000 H       1  UNL1        0.0654
     44 H           2.3291   -5.0880    0.0000 H       1  UNL1        0.2921
@<TRIPOS>BOND
     1     1     3    1
     2     1     4    1
     3     2    20    1
     4     2    44    1
     5     3     4    1
     6     3     7    1
     7     3     8    1
     8     4     5    1
     9     4    21    1
    10     5     6    1
    11     5    22    1
    12     5    23    1
    13     6     9    1
    14     6    24    1
    15     6    25    1
    16     7    26    1
    17     7    30    1
    18     7    31    1
    19     8    27    1
    20     8    28    1
    21     8    29    1
    22     9    10    1
    23     9    11    1
    24     9    12    1
    25    10    32    1
    26    10    33    1
    27    10    34    1
    28    11    13    2
    29    11    35    1
    30    12    14    2
    31    12    36    1
    32    13    15    1
    33    13    37    1
    34    14    38    1
    35    14    39    1
    36    15    16   ar
    37    15    17   ar
    38    16    18   ar
    39    16    40    1
    40    17    19   ar
    41    17    41    1
    42    18    20   ar
    43    18    42    1
    44    19    20   ar
    45    19    43    1
