@<TRIPOS>MOLECULE
IMPHY013306
 73 80 0 0 0
SMALL
GASTEIGER

@<TRIPOS>ATOM
      1 O           6.1964   -0.4697    0.0000 O.3     1  UNL1       -0.4482
      2 O           4.5808    0.4630    0.0000 O.3     1  UNL1       -0.4449
      3 O           2.8698   -0.4358    0.0000 O.3     1  UNL1       -0.4913
      4 O          10.5744   -1.8518    0.0000 O.3     1  UNL1       -0.4524
      5 O           7.7698   -1.3004    0.0000 O.3     1  UNL1       -0.5033
      6 N           6.3071   -3.4051    0.0000 N.3     1  UNL1       -0.2977
      7 N           7.9446    3.4118    0.0000 N.3     1  UNL1       -0.3087
      8 C           6.2915   -2.3931    0.0000 C.3     1  UNL1        0.0432
      9 C           5.4036   -1.9076    0.0000 C.ar    1  UNL1        0.0194
     10 C           4.5660   -2.3998    0.0000 C.ar    1  UNL1       -0.0343
     11 C           5.4346   -3.9178    0.0000 C.3     1  UNL1        0.0032
     12 C           4.5581   -3.4118    0.0000 C.3     1  UNL1       -0.0143
     13 C           7.0902   -1.9113    0.0000 C.3     1  UNL1       -0.0078
     14 C           5.3886   -0.9361    0.0000 C.ar    1  UNL1        0.1792
     15 C           7.9368    2.3998    0.0000 C.3     1  UNL1        0.0372
     16 C           7.0527    1.9074    0.0000 C.ar    1  UNL1       -0.0233
     17 C           6.2112    2.3932    0.0000 C.ar    1  UNL1       -0.0378
     18 C           4.5808   -0.4697    0.0000 C.ar    1  UNL1        0.2122
     19 C           6.1957    3.4051    0.0000 C.3     1  UNL1       -0.0147
     20 C           3.7245   -1.9140    0.0000 C.ar    1  UNL1       -0.0125
     21 C           7.0682    3.9178    0.0000 C.3     1  UNL1        0.0004
     22 C           7.1770   -3.8984    0.0000 C.3     1  UNL1       -0.0122
     23 C           6.1964    0.4630    0.0000 C.ar    1  UNL1        0.1710
     24 C           8.7392    1.9241    0.0000 C.3     1  UNL1       -0.0080
     25 C           5.3886    0.9294    0.0000 C.ar    1  UNL1        0.1711
     26 C           7.0452    0.9358    0.0000 C.ar    1  UNL1       -0.0107
     27 C           3.7320   -0.9424    0.0000 C.ar    1  UNL1        0.1661
     28 C           7.9068   -2.3620    0.0000 C.ar    1  UNL1       -0.0453
     29 C           5.3736    1.9008    0.0000 C.ar    1  UNL1       -0.0121
     30 C           8.7282    0.9663    0.0000 C.ar    1  UNL1       -0.0419
     31 C           7.9247   -3.2946    0.0000 C.ar    1  UNL1       -0.0550
     32 C           8.7054   -1.8801    0.0000 C.ar    1  UNL1       -0.0550
     33 C           9.5521    0.4779    0.0000 C.ar    1  UNL1       -0.0124
     34 C           7.8932    0.4970    0.0000 C.ar    1  UNL1       -0.0548
     35 C           8.7413   -3.7452    0.0000 C.ar    1  UNL1       -0.0191
     36 C           9.5220   -2.3308    0.0000 C.ar    1  UNL1       -0.0191
     37 C           9.5400   -3.2635    0.0000 C.ar    1  UNL1        0.1286
     38 C           9.5411   -0.4798    0.0000 C.ar    1  UNL1        0.1698
     39 C           7.8822   -0.4608    0.0000 C.ar    1  UNL1       -0.0162
     40 C           8.7061   -0.9492    0.0000 C.ar    1  UNL1        0.1591
     41 C           2.0000   -0.9291    0.0000 C.3     1  UNL1        0.0790
     42 H           6.2734   -1.5433    0.0000 H       1  UNL1        0.0516
     43 H           5.0373   -4.3938    0.0000 H       1  UNL1        0.0430
     44 H           5.8356   -4.3907    0.0000 H       1  UNL1        0.0430
     45 H           3.9481   -3.3010    0.0000 H       1  UNL1        0.0326
     46 H           4.3446   -3.9939    0.0000 H       1  UNL1        0.0326
     47 H           7.4795   -1.4288    0.0000 H       1  UNL1        0.0332
     48 H           6.6826   -1.4441    0.0000 H       1  UNL1        0.0332
     49 H           8.6770    2.8176    0.0000 H       1  UNL1        0.0513
     50 H           5.9776    3.9855    0.0000 H       1  UNL1        0.0326
     51 H           5.5865    3.2896    0.0000 H       1  UNL1        0.0326
     52 H           3.1864   -2.2219    0.0000 H       1  UNL1        0.0658
     53 H           7.4654    4.3938    0.0000 H       1  UNL1        0.0427
     54 H           6.6672    4.3907    0.0000 H       1  UNL1        0.0427
     55 H           8.4816    3.7218    0.0000 H       1  UNL1        0.1225
     56 H           6.8711   -4.4377    0.0000 H       1  UNL1        0.0391
     57 H           7.7163   -4.2043    0.0000 H       1  UNL1        0.0391
     58 H           7.4828   -3.3591    0.0000 H       1  UNL1        0.0391
     59 H           9.3485    1.8094    0.0000 H       1  UNL1        0.0332
     60 H           8.9579    2.5042    0.0000 H       1  UNL1        0.0332
     61 H           7.5785    0.6196    0.0000 H       1  UNL1        0.0659
     62 H           4.8331    2.2046    0.0000 H       1  UNL1        0.0658
     63 H           7.3938   -3.6148    0.0000 H       1  UNL1        0.0621
     64 H           8.6934   -1.2603    0.0000 H       1  UNL1        0.0621
     65 H          10.0926    0.7818    0.0000 H       1  UNL1        0.0658
     66 H           7.3598    0.8131    0.0000 H       1  UNL1        0.0621
     67 H           8.7532   -4.3651    0.0000 H       1  UNL1        0.0654
     68 H          10.0529   -2.0105    0.0000 H       1  UNL1        0.0654
     69 H           7.3417   -0.7646    0.0000 H       1  UNL1        0.0655
     70 H           1.6941   -0.3898    0.0000 H       1  UNL1        0.0660
     71 H           1.4607   -1.2350    0.0000 H       1  UNL1        0.0660
     72 H           2.3059   -1.4684    0.0000 H       1  UNL1        0.0660
     73 H           7.2910   -0.9065    0.0000 H       1  UNL1        0.2923
@<TRIPOS>BOND
     1     1    14    1
     2     1    23    1
     3     2    18    1
     4     2    25    1
     5     3    27    1
     6     3    41    1
     7     4    37    1
     8     4    38    1
     9     5    40    1
    10     5    73    1
    11     6     8    1
    12     6    11    1
    13     6    22    1
    14     7    15    1
    15     7    21    1
    16     7    55    1
    17     8     9    1
    18     8    13    1
    19     8    42    1
    20     9    10   ar
    21     9    14   ar
    22    10    12    1
    23    10    20   ar
    24    11    12    1
    25    11    43    1
    26    11    44    1
    27    12    45    1
    28    12    46    1
    29    13    28    1
    30    13    47    1
    31    13    48    1
    32    14    18   ar
    33    15    16    1
    34    15    24    1
    35    15    49    1
    36    16    17   ar
    37    16    26   ar
    38    17    19    1
    39    17    29   ar
    40    18    27   ar
    41    19    21    1
    42    19    50    1
    43    19    51    1
    44    20    27   ar
    45    20    52    1
    46    21    53    1
    47    21    54    1
    48    22    56    1
    49    22    57    1
    50    22    58    1
    51    23    25   ar
    52    23    26   ar
    53    24    30    1
    54    24    59    1
    55    24    60    1
    56    25    29   ar
    57    26    61    1
    58    28    31   ar
    59    28    32   ar
    60    29    62    1
    61    30    33   ar
    62    30    34   ar
    63    31    35   ar
    64    31    63    1
    65    32    36   ar
    66    32    64    1
    67    33    38   ar
    68    33    65    1
    69    34    39   ar
    70    34    66    1
    71    35    37   ar
    72    35    67    1
    73    36    37   ar
    74    36    68    1
    75    38    40   ar
    76    39    40   ar
    77    39    69    1
    78    41    70    1
    79    41    71    1
    80    41    72    1
