@<TRIPOS>MOLECULE
IMPHY013296
 29 30 0 0 0
SMALL
GASTEIGER

@<TRIPOS>ATOM
      1 O           6.0010   -0.5000    0.0000 O.3     1  UNL1       -0.5058
      2 O           2.5369   -0.5000    0.0000 O.3     1  UNL1       -0.5058
      3 O           3.4030    1.0000    0.0000 O.2     1  UNL1       -0.2864
      4 O           4.2690   -3.5000    0.0000 O.3     1  UNL1       -0.5065
      5 O           7.7331    0.5000    0.0000 O.3     1  UNL1       -0.5066
      6 O           6.0010    3.5000    0.0000 O.3     1  UNL1       -0.5066
      7 C           4.2690   -0.5000    0.0000 C.ar    1  UNL1        0.1051
      8 C           5.1350    1.0000    0.0000 C.ar    1  UNL1        0.0294
      9 C           4.2690    0.5000    0.0000 C.2     1  UNL1        0.2004
     10 C           5.1350   -1.0000    0.0000 C.ar    1  UNL1        0.1347
     11 C           3.4030   -1.0000    0.0000 C.ar    1  UNL1        0.1347
     12 C           5.1350    2.0000    0.0000 C.ar    1  UNL1       -0.0091
     13 C           6.0010    0.5000    0.0000 C.ar    1  UNL1       -0.0091
     14 C           5.1350   -2.0000    0.0000 C.ar    1  UNL1        0.0223
     15 C           3.4030   -2.0000    0.0000 C.ar    1  UNL1        0.0223
     16 C           4.2690   -2.5000    0.0000 C.ar    1  UNL1        0.1238
     17 C           6.8671    1.0000    0.0000 C.ar    1  UNL1        0.1210
     18 C           6.0010    2.5000    0.0000 C.ar    1  UNL1        0.1210
     19 C           6.8671    2.0000    0.0000 C.ar    1  UNL1        0.0213
     20 H           4.5981    2.3100    0.0000 H       1  UNL1        0.0661
     21 H           6.0010   -0.1200    0.0000 H       1  UNL1        0.0661
     22 H           5.6720   -2.3100    0.0000 H       1  UNL1        0.0691
     23 H           2.8660   -2.3100    0.0000 H       1  UNL1        0.0691
     24 H           7.4040    2.3100    0.0000 H       1  UNL1        0.0691
     25 H           6.5380   -0.8100    0.0000 H       1  UNL1        0.2922
     26 H           2.0000   -0.8100    0.0000 H       1  UNL1        0.2922
     27 H           3.7320   -3.8100    0.0000 H       1  UNL1        0.2921
     28 H           8.2700    0.8100    0.0000 H       1  UNL1        0.2921
     29 H           6.5380    3.8100    0.0000 H       1  UNL1        0.2921
@<TRIPOS>BOND
     1     1    10    1
     2     1    25    1
     3     2    11    1
     4     2    26    1
     5     3     9    2
     6     4    16    1
     7     4    27    1
     8     5    17    1
     9     5    28    1
    10     6    18    1
    11     6    29    1
    12     7     9    1
    13     7    10   ar
    14     7    11   ar
    15     8     9    1
    16     8    12   ar
    17     8    13   ar
    18    10    14   ar
    19    11    15   ar
    20    12    18   ar
    21    12    20    1
    22    13    17   ar
    23    13    21    1
    24    14    16   ar
    25    14    22    1
    26    15    16   ar
    27    15    23    1
    28    17    19   ar
    29    18    19   ar
    30    19    24    1
