@<TRIPOS>MOLECULE
IMPHY007781
 96 101 0 0 0
SMALL
GASTEIGER

@<TRIPOS>ATOM
      1 O           5.9071   -2.4316    0.0000 O.3     1  UNL1       -0.3683
      2 O           3.6470   -1.1716    0.0000 O.3     1  UNL1       -0.3812
      3 O           4.5981    4.5194    0.0000 O.3     1  UNL1       -0.3947
      4 O           5.4641    7.0194    0.0000 O.3     1  UNL1       -0.3947
      5 O           3.1301   -3.7188    0.0000 O.3     1  UNL1       -0.3945
      6 O          10.7263    6.0436    0.0000 O.3     1  UNL1       -0.4914
      7 O          10.7263    3.9953    0.0000 O.3     1  UNL1       -0.5033
      8 O           8.9282    1.0194    0.0000 O.3     1  UNL1       -0.4914
      9 O           2.8660    1.5194    0.0000 O.3     1  UNL1       -0.4914
     10 O           7.1962    0.0194    0.0000 O.3     1  UNL1       -0.5029
     11 O           4.5981    2.5194    0.0000 O.3     1  UNL1       -0.5029
     12 O           3.3660   -6.0194    0.0000 O.3     1  UNL1       -0.4914
     13 O           5.0981   -7.0194    0.0000 O.3     1  UNL1       -0.5033
     14 C           6.3301    4.5194    0.0000 C.3     1  UNL1       -0.0018
     15 C           6.3301    5.5194    0.0000 C.3     1  UNL1       -0.0081
     16 C           7.1962    4.0194    0.0000 C.3     1  UNL1        0.0150
     17 C           4.5981   -1.4806    0.0000 C.3     1  UNL1        0.1218
     18 C           4.2891   -2.4316    0.0000 C.3     1  UNL1        0.0477
     19 C           7.1962    6.0194    0.0000 C.3     1  UNL1       -0.0220
     20 C           8.0622    4.5194    0.0000 C.ar    1  UNL1       -0.0328
     21 C           8.0622    5.5194    0.0000 C.ar    1  UNL1       -0.0396
     22 C           5.0981   -3.0194    0.0000 C.3     1  UNL1        0.0918
     23 C           5.4641    4.0194    0.0000 C.3     1  UNL1        0.0482
     24 C           7.1962    3.0194    0.0000 C.ar    1  UNL1       -0.0354
     25 C           5.5981   -1.4806    0.0000 C.3     1  UNL1        0.0818
     26 C           5.4641    6.0194    0.0000 C.3     1  UNL1        0.0477
     27 C           4.5981   -0.4806    0.0000 C.ar    1  UNL1       -0.0092
     28 C           3.3380   -2.7406    0.0000 C.3     1  UNL1        0.0527
     29 C           8.9561    3.9848    0.0000 C.ar    1  UNL1       -0.0125
     30 C           5.0981   -4.0194    0.0000 C.ar    1  UNL1       -0.0148
     31 C           8.9561    6.0541    0.0000 C.ar    1  UNL1       -0.0128
     32 C           6.3301    2.5194    0.0000 C.ar    1  UNL1       -0.0464
     33 C           8.0622    2.5194    0.0000 C.ar    1  UNL1       -0.0125
     34 C           5.4641    0.0194    0.0000 C.ar    1  UNL1       -0.0442
     35 C           6.3301    1.5194    0.0000 C.ar    1  UNL1        0.0311
     36 C           5.4641    1.0194    0.0000 C.ar    1  UNL1        0.0312
     37 C           3.7320    0.0194    0.0000 C.ar    1  UNL1       -0.0103
     38 C           9.8622    4.4986    0.0000 C.ar    1  UNL1        0.1587
     39 C           9.8622    5.5402    0.0000 C.ar    1  UNL1        0.1615
     40 C           8.0622    1.5194    0.0000 C.ar    1  UNL1        0.1622
     41 C           7.1962    1.0194    0.0000 C.ar    1  UNL1        0.1664
     42 C           4.5981    1.5194    0.0000 C.ar    1  UNL1        0.1664
     43 C           3.7320    1.0194    0.0000 C.ar    1  UNL1        0.1622
     44 C           4.2320   -4.5194    0.0000 C.ar    1  UNL1       -0.0107
     45 C           5.9641   -4.5194    0.0000 C.ar    1  UNL1       -0.0524
     46 C           4.2320   -5.5194    0.0000 C.ar    1  UNL1        0.1616
     47 C           5.9641   -5.5194    0.0000 C.ar    1  UNL1       -0.0162
     48 C           5.0981   -6.0194    0.0000 C.ar    1  UNL1        0.1585
     49 C          10.7224    7.0436    0.0000 C.3     1  UNL1        0.0790
     50 C           9.7942    1.5194    0.0000 C.3     1  UNL1        0.0790
     51 C           2.0000    1.0194    0.0000 C.3     1  UNL1        0.0790
     52 C           3.3660   -7.0194    0.0000 C.3     1  UNL1        0.0790
     53 H           5.7932    4.8294    0.0000 H       1  UNL1        0.0335
     54 H           6.3301    6.1394    0.0000 H       1  UNL1        0.0330
     55 H           6.6592    3.7094    0.0000 H       1  UNL1        0.0401
     56 H           4.1921   -3.0440    0.0000 H       1  UNL1        0.0384
     57 H           7.5947    6.4944    0.0000 H       1  UNL1        0.0317
     58 H           6.7976    6.4944    0.0000 H       1  UNL1        0.0317
     59 H           5.6505   -3.3009    0.0000 H       1  UNL1        0.0651
     60 H           5.0656    3.5445    0.0000 H       1  UNL1        0.0560
     61 H           5.8626    3.5445    0.0000 H       1  UNL1        0.0560
     62 H           6.2045   -1.3517    0.0000 H       1  UNL1        0.0592
     63 H           5.5333   -0.8640    0.0000 H       1  UNL1        0.0592
     64 H           4.8535    6.1271    0.0000 H       1  UNL1        0.0560
     65 H           5.2520    5.4368    0.0000 H       1  UNL1        0.0560
     66 H           3.2517   -2.1267    0.0000 H       1  UNL1        0.0562
     67 H           2.7184   -2.7190    0.0000 H       1  UNL1        0.0562
     68 H           8.9490    3.3648    0.0000 H       1  UNL1        0.0658
     69 H           8.9490    6.6740    0.0000 H       1  UNL1        0.0658
     70 H           5.7932    2.8294    0.0000 H       1  UNL1        0.0628
     71 H           8.5991    2.8294    0.0000 H       1  UNL1        0.0658
     72 H           6.0010   -0.2906    0.0000 H       1  UNL1        0.0628
     73 H           3.1863   -1.5864    0.0000 H       1  UNL1        0.2107
     74 H           3.1951   -0.2906    0.0000 H       1  UNL1        0.0659
     75 H           4.0611    4.2094    0.0000 H       1  UNL1        0.2094
     76 H           4.9272    7.3294    0.0000 H       1  UNL1        0.2094
     77 H           3.6951   -4.2094    0.0000 H       1  UNL1        0.0659
     78 H           6.5010   -4.2094    0.0000 H       1  UNL1        0.0622
     79 H           2.5404   -3.9104    0.0000 H       1  UNL1        0.2094
     80 H           6.5010   -5.8294    0.0000 H       1  UNL1        0.0655
     81 H          11.2644    4.3032    0.0000 H       1  UNL1        0.2923
     82 H           7.7331   -0.2906    0.0000 H       1  UNL1        0.2923
     83 H           4.0611    2.8294    0.0000 H       1  UNL1        0.2923
     84 H          11.3424    7.0460    0.0000 H       1  UNL1        0.0660
     85 H          10.7200    7.6636    0.0000 H       1  UNL1        0.0660
     86 H          10.1024    7.0412    0.0000 H       1  UNL1        0.0660
     87 H          10.1042    0.9825    0.0000 H       1  UNL1        0.0660
     88 H          10.3312    1.8294    0.0000 H       1  UNL1        0.0660
     89 H           9.4842    2.0564    0.0000 H       1  UNL1        0.0660
     90 H           1.6900    1.5564    0.0000 H       1  UNL1        0.0660
     91 H           1.4631    0.7094    0.0000 H       1  UNL1        0.0660
     92 H           2.3100    0.4825    0.0000 H       1  UNL1        0.0660
     93 H           5.6350   -7.3294    0.0000 H       1  UNL1        0.2923
     94 H           2.7460   -7.0194    0.0000 H       1  UNL1        0.0660
     95 H           3.3660   -7.6394    0.0000 H       1  UNL1        0.0660
     96 H           3.9860   -7.0194    0.0000 H       1  UNL1        0.0660
@<TRIPOS>BOND
     1     1    22    1
     2     1    25    1
     3    17     2    1
     4     2    73    1
     5     3    23    1
     6     3    75    1
     7     4    26    1
     8     4    76    1
     9     5    28    1
    10     5    79    1
    11     6    39    1
    12     6    49    1
    13     7    38    1
    14     7    81    1
    15     8    40    1
    16     8    50    1
    17     9    43    1
    18     9    51    1
    19    10    41    1
    20    10    82    1
    21    11    42    1
    22    11    83    1
    23    12    46    1
    24    12    52    1
    25    13    48    1
    26    13    93    1
    27    14    15    1
    28    14    16    1
    29    14    23    1
    30    14    53    1
    31    15    19    1
    32    15    26    1
    33    15    54    1
    34    16    20    1
    35    16    24    1
    36    16    55    1
    37    17    18    1
    38    17    25    1
    39    17    27    1
    40    18    22    1
    41    18    28    1
    42    18    56    1
    43    19    21    1
    44    19    57    1
    45    19    58    1
    46    20    21   ar
    47    20    29   ar
    48    21    31   ar
    49    22    30    1
    50    22    59    1
    51    23    60    1
    52    23    61    1
    53    24    32   ar
    54    24    33   ar
    55    25    62    1
    56    25    63    1
    57    26    64    1
    58    26    65    1
    59    27    34   ar
    60    27    37   ar
    61    28    66    1
    62    28    67    1
    63    29    38   ar
    64    29    68    1
    65    30    44   ar
    66    30    45   ar
    67    31    39   ar
    68    31    69    1
    69    32    35   ar
    70    32    70    1
    71    33    40   ar
    72    33    71    1
    73    34    36   ar
    74    34    72    1
    75    35    36    1
    76    35    41   ar
    77    36    42   ar
    78    37    43   ar
    79    37    74    1
    80    38    39   ar
    81    40    41   ar
    82    42    43   ar
    83    44    46   ar
    84    44    77    1
    85    45    47   ar
    86    45    78    1
    87    46    48   ar
    88    47    48   ar
    89    47    80    1
    90    49    84    1
    91    49    85    1
    92    49    86    1
    93    50    87    1
    94    50    88    1
    95    50    89    1
    96    51    90    1
    97    51    91    1
    98    51    92    1
    99    52    94    1
   100    52    95    1
   101    52    96    1
