@<TRIPOS>MOLECULE
IMPHY006067
 77 80 0 0 0
SMALL
GASTEIGER

@<TRIPOS>ATOM
      1 O           8.2709   -2.8906    0.0000 O.3     1  UNL1       -0.3849
      2 O           7.7056   -3.2170    0.0000 O.3     1  UNL1       -0.3851
      3 O           7.0628    0.5491    0.0000 O.3     1  UNL1       -0.4575
      4 O           8.5677    0.3054    0.0000 O.3     1  UNL1       -0.3803
      5 O           9.5823    0.9349    0.0000 O.2     1  UNL1       -0.2946
      6 O           2.5357   -4.0033    0.0000 O.3     1  UNL1       -0.3915
      7 O           5.3307    0.5491    0.0000 O.2     1  UNL1       -0.2456
      8 C           7.9288   -1.9509    0.0000 C.3     1  UNL1        0.1070
      9 C           7.9288   -0.9509    0.0000 C.3     1  UNL1        0.0718
     10 C           7.0628   -2.4509    0.0000 C.3     1  UNL1        0.1024
     11 C           6.1968   -1.9509    0.0000 C.3     1  UNL1        0.0033
     12 C           7.0628   -0.4509    0.0000 C.3     1  UNL1        0.1149
     13 C           8.8750   -0.6462    0.0000 C.3     1  UNL1        0.1347
     14 C           5.2868   -2.4578    0.0000 C.3     1  UNL1       -0.0053
     15 C           6.1968   -0.9509    0.0000 C.3     1  UNL1       -0.0086
     16 C           8.8750   -2.2556    0.0000 C.3     1  UNL1       -0.0175
     17 C           9.4586   -1.4509    0.0000 C.3     1  UNL1       -0.0136
     18 C           7.0789   -3.4924    0.0000 C.3     1  UNL1       -0.0025
     19 C           7.9288    0.0491    0.0000 C.3     1  UNL1       -0.0503
     20 C           5.2787   -3.4994    0.0000 C.2     1  UNL1       -0.0647
     21 C           4.3599   -1.8937    0.0000 C.3     1  UNL1       -0.0412
     22 C           6.1808   -4.0202    0.0000 C.2     1  UNL1       -0.0813
     23 C           5.2945   -1.4578    0.0000 C.3     1  UNL1       -0.0555
     24 C           9.6851   -0.0598    0.0000 C.2     1  UNL1        0.1623
     25 C           4.3433   -4.0491    0.0000 C.3     1  UNL1       -0.0051
     26 C           3.4120   -2.4216    0.0000 C.3     1  UNL1       -0.0258
     27 C           3.4037   -3.5066    0.0000 C.3     1  UNL1        0.0590
     28 C          10.5979   -0.4681    0.0000 C.3     1  UNL1       -0.0031
     29 C           6.1968    1.0491    0.0000 C.2     1  UNL1        0.3322
     30 C           6.1968    2.0491    0.0000 C.2     1  UNL1        0.0217
     31 C           5.3307    2.5491    0.0000 C.2     1  UNL1       -0.0633
     32 C           5.3307    3.5491    0.0000 C.3     1  UNL1       -0.0253
     33 C           4.4647    2.0491    0.0000 C.3     1  UNL1       -0.0430
     34 C           4.4647    4.0491    0.0000 C.3     1  UNL1       -0.0590
     35 C           6.1968    4.0491    0.0000 C.3     1  UNL1       -0.0590
     36 H           6.9329   -1.5259    0.0000 H       1  UNL1        0.0339
     37 H           6.5259   -0.1409    0.0000 H       1  UNL1        0.0741
     38 H           5.9847   -0.3683    0.0000 H       1  UNL1        0.0305
     39 H           5.5862   -1.0586    0.0000 H       1  UNL1        0.0305
     40 H           8.6240   -2.8226    0.0000 H       1  UNL1        0.0295
     41 H           9.4124   -2.5649    0.0000 H       1  UNL1        0.0295
     42 H           9.9195   -1.8656    0.0000 H       1  UNL1        0.0298
     43 H           9.9195   -1.0362    0.0000 H       1  UNL1        0.0298
     44 H           7.2969   -4.0728    0.0000 H       1  UNL1        0.0336
     45 H           7.6880   -3.3769    0.0000 H       1  UNL1        0.0336
     46 H           8.5488    0.0491    0.0000 H       1  UNL1        0.0238
     47 H           7.9288    0.6691    0.0000 H       1  UNL1        0.0238
     48 H           7.3088    0.0491    0.0000 H       1  UNL1        0.0238
     49 H           4.7681   -1.4270    0.0000 H       1  UNL1        0.0274
     50 H           3.9700   -1.4116    0.0000 H       1  UNL1        0.0274
     51 H           6.1832   -4.6402    0.0000 H       1  UNL1        0.0573
     52 H           8.8814   -2.9983    0.0000 H       1  UNL1        0.2103
     53 H           5.9145   -1.4626    0.0000 H       1  UNL1        0.0238
     54 H           5.2993   -0.8378    0.0000 H       1  UNL1        0.0238
     55 H           4.6745   -1.4530    0.0000 H       1  UNL1        0.0238
     56 H           7.8133   -3.8275    0.0000 H       1  UNL1        0.2103
     57 H           3.9460   -4.5250    0.0000 H       1  UNL1        0.0335
     58 H           4.7443   -4.5220    0.0000 H       1  UNL1        0.0335
     59 H           3.2075   -1.8363    0.0000 H       1  UNL1        0.0290
     60 H           2.8004   -2.5230    0.0000 H       1  UNL1        0.0290
     61 H           8.9833    0.7654    0.0000 H       1  UNL1        0.2108
     62 H           3.4025   -4.1266    0.0000 H       1  UNL1        0.0596
     63 H          10.3448   -1.0341    0.0000 H       1  UNL1        0.0307
     64 H          11.1639   -0.7213    0.0000 H       1  UNL1        0.0307
     65 H          10.8511    0.0978    0.0000 H       1  UNL1        0.0307
     66 H           2.0000   -3.6912    0.0000 H       1  UNL1        0.2098
     67 H           6.7337    2.3591    0.0000 H       1  UNL1        0.0688
     68 H           5.3307    4.1691    0.0000 H       1  UNL1        0.0340
     69 H           4.1547    2.5860    0.0000 H       1  UNL1        0.0275
     70 H           3.9278    1.7391    0.0000 H       1  UNL1        0.0275
     71 H           4.7747    1.5122    0.0000 H       1  UNL1        0.0275
     72 H           4.7747    4.5860    0.0000 H       1  UNL1        0.0235
     73 H           6.5068    3.5122    0.0000 H       1  UNL1        0.0235
     74 H           6.7337    4.3591    0.0000 H       1  UNL1        0.0235
     75 H           5.8868    4.5860    0.0000 H       1  UNL1        0.0235
     76 H           3.9278    4.3591    0.0000 H       1  UNL1        0.0235
     77 H           4.1547    3.5122    0.0000 H       1  UNL1        0.0235
@<TRIPOS>BOND
     1     8     1    1
     2     1    52    1
     3    10     2    1
     4     2    56    1
     5    12     3    1
     6     3    29    1
     7    13     4    1
     8     4    61    1
     9     5    24    2
    10    27     6    1
    11     6    66    1
    12     7    29    2
    13     8     9    1
    14     8    10    1
    15     8    16    1
    16     9    12    1
    17     9    13    1
    18     9    19    1
    19    10    11    1
    20    10    18    1
    21    11    14    1
    22    11    15    1
    23    11    36    1
    24    12    15    1
    25    12    37    1
    26    13    17    1
    27    13    24    1
    28    14    20    1
    29    14    21    1
    30    14    23    1
    31    15    38    1
    32    15    39    1
    33    16    17    1
    34    16    40    1
    35    16    41    1
    36    17    42    1
    37    17    43    1
    38    18    22    1
    39    18    44    1
    40    18    45    1
    41    19    46    1
    42    19    47    1
    43    19    48    1
    44    20    22    2
    45    20    25    1
    46    21    26    1
    47    21    49    1
    48    21    50    1
    49    22    51    1
    50    23    53    1
    51    23    54    1
    52    23    55    1
    53    24    28    1
    54    25    27    1
    55    25    57    1
    56    25    58    1
    57    26    27    1
    58    26    59    1
    59    26    60    1
    60    27    62    1
    61    28    63    1
    62    28    64    1
    63    28    65    1
    64    29    30    1
    65    30    31    2
    66    30    67    1
    67    31    32    1
    68    31    33    1
    69    32    34    1
    70    32    35    1
    71    32    68    1
    72    33    69    1
    73    33    70    1
    74    33    71    1
    75    34    72    1
    76    34    76    1
    77    34    77    1
    78    35    73    1
    79    35    74    1
    80    35    75    1
