@<TRIPOS>MOLECULE
IMPHY017424
 38 37 0 0 0
SMALL
GASTEIGER

@<TRIPOS>ATOM
      1 O           2.5369    0.4400    0.0000 O.3     1  UNL1       -0.3920
      2 C           4.2690    0.4400    0.0000 C.3     1  UNL1       -0.0237
      3 C           5.1350   -0.0600    0.0000 C.3     1  UNL1       -0.0322
      4 C           3.4030   -0.0600    0.0000 C.3     1  UNL1        0.0527
      5 C           7.7331    0.4400    0.0000 C.3     1  UNL1       -0.0286
      6 C           6.8671   -0.0600    0.0000 C.2     1  UNL1       -0.0762
      7 C           6.0010    0.4400    0.0000 C.2     1  UNL1       -0.0849
      8 C           8.5991   -0.0600    0.0000 C.3     1  UNL1       -0.0308
      9 C           3.4030   -1.0600    0.0000 C.3     1  UNL1       -0.0389
     10 C           6.8671   -1.0600    0.0000 C.3     1  UNL1       -0.0438
     11 C           9.4651    0.4400    0.0000 C.2     1  UNL1       -0.0850
     12 C          10.3312   -0.0600    0.0000 C.2     1  UNL1       -0.0796
     13 C          11.1972    0.4400    0.0000 C.3     1  UNL1       -0.0440
     14 C          10.3312   -1.0600    0.0000 C.3     1  UNL1       -0.0440
     15 H           4.6675    0.9149    0.0000 H       1  UNL1        0.0293
     16 H           3.8705    0.9149    0.0000 H       1  UNL1        0.0293
     17 H           4.7365   -0.5349    0.0000 H       1  UNL1        0.0308
     18 H           5.5335   -0.5349    0.0000 H       1  UNL1        0.0308
     19 H           3.4030    0.5600    0.0000 H       1  UNL1        0.0590
     20 H           8.1316    0.9149    0.0000 H       1  UNL1        0.0313
     21 H           7.3346    0.9149    0.0000 H       1  UNL1        0.0313
     22 H           6.0010    1.0600    0.0000 H       1  UNL1        0.0572
     23 H           8.2006   -0.5349    0.0000 H       1  UNL1        0.0310
     24 H           8.9976   -0.5349    0.0000 H       1  UNL1        0.0310
     25 H           2.7830   -1.0600    0.0000 H       1  UNL1        0.0254
     26 H           3.4030   -1.6800    0.0000 H       1  UNL1        0.0254
     27 H           4.0230   -1.0600    0.0000 H       1  UNL1        0.0254
     28 H           6.2471   -1.0600    0.0000 H       1  UNL1        0.0274
     29 H           6.8671   -1.6800    0.0000 H       1  UNL1        0.0274
     30 H           7.4871   -1.0600    0.0000 H       1  UNL1        0.0274
     31 H           9.4651    1.0600    0.0000 H       1  UNL1        0.0572
     32 H           2.0000    0.1300    0.0000 H       1  UNL1        0.2098
     33 H          11.5072   -0.0969    0.0000 H       1  UNL1        0.0274
     34 H          11.7341    0.7500    0.0000 H       1  UNL1        0.0274
     35 H          10.8872    0.9769    0.0000 H       1  UNL1        0.0274
     36 H           9.7112   -1.0600    0.0000 H       1  UNL1        0.0274
     37 H          10.3312   -1.6800    0.0000 H       1  UNL1        0.0274
     38 H          10.9512   -1.0600    0.0000 H       1  UNL1        0.0274
@<TRIPOS>BOND
     1     1     4    1
     2     1    32    1
     3     2     3    1
     4     2     4    1
     5     2    15    1
     6     2    16    1
     7     3     7    1
     8     3    17    1
     9     3    18    1
    10     4     9    1
    11     4    19    1
    12     5     6    1
    13     5     8    1
    14     5    20    1
    15     5    21    1
    16     6     7    2
    17     6    10    1
    18     7    22    1
    19     8    11    1
    20     8    23    1
    21     8    24    1
    22     9    25    1
    23     9    26    1
    24     9    27    1
    25    10    28    1
    26    10    29    1
    27    10    30    1
    28    11    12    2
    29    11    31    1
    30    12    13    1
    31    12    14    1
    32    13    33    1
    33    13    34    1
    34    13    35    1
    35    14    36    1
    36    14    37    1
    37    14    38    1
