@<TRIPOS>MOLECULE
IMPHY013563
 105 110 0 0 0
SMALL
GASTEIGER

@<TRIPOS>ATOM
      1 O           9.5424    4.0534    0.0000 O.3     1  UNL1       -0.3911
      2 O           6.8671   -3.6987    0.0000 O.3     1  UNL1       -0.3448
      3 O           6.8270    6.6946    0.0000 O.3     1  UNL1       -0.3912
      4 O           9.3112   -3.0071    0.0000 O.3     1  UNL1       -0.3944
      5 O           8.6209    5.5807    0.0000 O.3     1  UNL1       -0.3944
      6 O           5.1350   -3.6987    0.0000 O.3     1  UNL1       -0.3315
      7 O           6.8671   -5.6987    0.0000 O.3     1  UNL1       -0.3841
      8 O           5.1350   -6.6987    0.0000 O.3     1  UNL1       -0.3864
      9 O           3.4030   -5.6987    0.0000 O.3     1  UNL1       -0.3860
     10 O           2.5369   -4.1987    0.0000 O.3     1  UNL1       -0.4788
     11 O           3.4030   -2.6987    0.0000 O.2     1  UNL1       -0.2480
     12 C           7.7681    1.0015    0.0000 C.3     1  UNL1       -0.0193
     13 C           6.9040    0.4981    0.0000 C.3     1  UNL1       -0.0257
     14 C           6.8920   -0.5434    0.0000 C.3     1  UNL1       -0.0249
     15 C           7.7643    2.0015    0.0000 C.3     1  UNL1       -0.0028
     16 C           7.7920   -1.0677    0.0000 C.3     1  UNL1       -0.0255
     17 C           8.6801    0.4981    0.0000 C.3     1  UNL1       -0.0463
     18 C           6.8963    2.4981    0.0000 C.2     1  UNL1       -0.0631
     19 C           6.8762    3.5396    0.0000 C.3     1  UNL1       -0.0086
     20 C           8.6921   -0.5434    0.0000 C.3     1  UNL1       -0.0485
     21 C           7.8046   -2.1526    0.0000 C.3     1  UNL1        0.0206
     22 C           7.7722    4.0708    0.0000 C.3     1  UNL1        0.0286
     23 C           8.6723    2.5118    0.0000 C.3     1  UNL1       -0.0166
     24 C           6.0361    0.9948    0.0000 C.3     1  UNL1       -0.0306
     25 C           5.9421   -1.0677    0.0000 C.3     1  UNL1       -0.0447
     26 C           8.6763    3.5534    0.0000 C.3     1  UNL1        0.0644
     27 C           8.7522    1.1789    0.0000 C.3     1  UNL1       -0.0585
     28 C           6.8671   -2.6987    0.0000 C.3     1  UNL1        0.0695
     29 C           6.0322    1.9948    0.0000 C.2     1  UNL1       -0.0836
     30 C           6.0279   -0.0401    0.0000 C.3     1  UNL1       -0.0590
     31 C           5.9295   -2.1526    0.0000 C.3     1  UNL1       -0.0254
     32 C           8.7497    1.8316    0.0000 C.3     1  UNL1       -0.0552
     33 C           5.9223    4.0565    0.0000 C.3     1  UNL1       -0.0383
     34 C           7.7764    5.1558    0.0000 C.3     1  UNL1       -0.0157
     35 C           5.9014    5.1413    0.0000 C.3     1  UNL1       -0.0083
     36 C           6.8347    5.6946    0.0000 C.3     1  UNL1        0.0610
     37 C           8.8046   -2.1449    0.0000 C.3     1  UNL1        0.0522
     38 C           8.6324    4.5808    0.0000 C.3     1  UNL1        0.0528
     39 C           8.3113   -3.0148    0.0000 C.3     1  UNL1       -0.0548
     40 C           5.3881    5.9995    0.0000 C.3     1  UNL1       -0.0574
     41 C           4.9015    5.1259    0.0000 C.3     1  UNL1       -0.0574
     42 C           6.0010   -4.1987    0.0000 C.3     1  UNL1        0.1888
     43 C           6.0010   -5.1987    0.0000 C.3     1  UNL1        0.1341
     44 C           5.1350   -5.6987    0.0000 C.3     1  UNL1        0.1145
     45 C           4.2690   -4.1987    0.0000 C.3     1  UNL1        0.1859
     46 C           4.2690   -5.1987    0.0000 C.3     1  UNL1        0.1201
     47 C           3.4030   -3.6987    0.0000 C.2     1  UNL1        0.3367
     48 H           7.6385    0.0703    0.0000 H       1  UNL1        0.0315
     49 H           8.5314   -1.4870    0.0000 H       1  UNL1        0.0313
     50 H           9.2921    0.3991    0.0000 H       1  UNL1        0.0271
     51 H           8.8824    1.0842    0.0000 H       1  UNL1        0.0271
     52 H           6.1502    3.0977    0.0000 H       1  UNL1        0.0353
     53 H           8.9079   -1.1246    0.0000 H       1  UNL1        0.0268
     54 H           9.3017   -0.4303    0.0000 H       1  UNL1        0.0268
     55 H           8.8791    1.9273    0.0000 H       1  UNL1        0.0299
     56 H           9.2836    2.6156    0.0000 H       1  UNL1        0.0299
     57 H           5.4251    1.1001    0.0000 H       1  UNL1        0.0310
     58 H           5.8263    0.4114    0.0000 H       1  UNL1        0.0310
     59 H           5.7398   -0.4816    0.0000 H       1  UNL1        0.0271
     60 H           5.3300   -1.1667    0.0000 H       1  UNL1        0.0271
     61 H           9.2127    3.2424    0.0000 H       1  UNL1        0.0600
     62 H           8.8623    0.5688    0.0000 H       1  UNL1        0.0235
     63 H           9.3624    1.2889    0.0000 H       1  UNL1        0.0235
     64 H           8.6422    1.7891    0.0000 H       1  UNL1        0.0235
     65 H           7.4046   -3.0077    0.0000 H       1  UNL1        0.0603
     66 H           5.4941    2.3027    0.0000 H       1  UNL1        0.0572
     67 H           6.3400    0.4957    0.0000 H       1  UNL1        0.0235
     68 H           5.4922    0.2720    0.0000 H       1  UNL1        0.0235
     69 H           5.7158   -0.5758    0.0000 H       1  UNL1        0.0235
     70 H           5.3199   -2.0395    0.0000 H       1  UNL1        0.0290
     71 H           5.7137   -2.7339    0.0000 H       1  UNL1        0.0290
     72 H           8.6444    1.2206    0.0000 H       1  UNL1        0.0238
     73 H           9.3607    1.7263    0.0000 H       1  UNL1        0.0238
     74 H           8.8550    2.4426    0.0000 H       1  UNL1        0.0238
     75 H           5.3095    4.1508    0.0000 H       1  UNL1        0.0277
     76 H           5.7246    3.4689    0.0000 H       1  UNL1        0.0277
     77 H           8.3869    5.0473    0.0000 H       1  UNL1        0.0297
     78 H           7.9877    5.7386    0.0000 H       1  UNL1        0.0297
     79 H           7.3698    6.0077    0.0000 H       1  UNL1        0.0599
     80 H           9.3855   -1.9284    0.0000 H       1  UNL1        0.0563
     81 H           8.6922   -1.5352    0.0000 H       1  UNL1        0.0563
     82 H           8.8512    4.0006    0.0000 H       1  UNL1        0.0564
     83 H           9.2417    4.6955    0.0000 H       1  UNL1        0.0564
     84 H           7.7767   -3.3289    0.0000 H       1  UNL1        0.0237
     85 H           8.6254   -3.5493    0.0000 H       1  UNL1        0.0237
     86 H           8.8458   -2.7006    0.0000 H       1  UNL1        0.0237
     87 H          10.0793    3.7434    0.0000 H       1  UNL1        0.2098
     88 H           5.9202    6.3178    0.0000 H       1  UNL1        0.0236
     89 H           5.0699    6.5316    0.0000 H       1  UNL1        0.0236
     90 H           4.8560    5.6813    0.0000 H       1  UNL1        0.0236
     91 H           4.8920    5.7458    0.0000 H       1  UNL1        0.0236
     92 H           4.2816    5.1163    0.0000 H       1  UNL1        0.0236
     93 H           4.9111    4.5060    0.0000 H       1  UNL1        0.0236
     94 H           7.3615    7.0087    0.0000 H       1  UNL1        0.2098
     95 H           6.0010   -3.5787    0.0000 H       1  UNL1        0.0938
     96 H           9.9312   -3.0023    0.0000 H       1  UNL1        0.2094
     97 H           9.1542    5.8969    0.0000 H       1  UNL1        0.2094
     98 H           6.0010   -5.8187    0.0000 H       1  UNL1        0.0671
     99 H           4.5981   -6.0087    0.0000 H       1  UNL1        0.0648
    100 H           4.2690   -3.5787    0.0000 H       1  UNL1        0.0741
    101 H           3.7320   -4.8887    0.0000 H       1  UNL1        0.0652
    102 H           7.4040   -5.3887    0.0000 H       1  UNL1        0.2101
    103 H           5.6720   -7.0087    0.0000 H       1  UNL1        0.2100
    104 H           3.4030   -6.3187    0.0000 H       1  UNL1        0.2100
    105 H           2.0000   -3.8887    0.0000 H       1  UNL1        0.2951
@<TRIPOS>BOND
     1    26     1    1
     2     1    87    1
     3    28     2    1
     4    42     2    1
     5    36     3    1
     6     3    94    1
     7     4    37    1
     8     4    96    1
     9     5    38    1
    10     5    97    1
    11     6    42    1
    12     6    45    1
    13    43     7    1
    14     7   102    1
    15    44     8    1
    16     8   103    1
    17    46     9    1
    18     9   104    1
    19    10    47    1
    20    10   105    1
    21    11    47    2
    22    12    13    1
    23    12    15    1
    24    12    17    1
    25    12    27    1
    26    13    14    1
    27    13    24    1
    28    13    48    1
    29    14    16    1
    30    14    25    1
    31    14    30    1
    32    15    18    1
    33    15    23    1
    34    15    32    1
    35    16    20    1
    36    16    21    1
    37    16    49    1
    38    17    20    1
    39    17    50    1
    40    17    51    1
    41    18    19    1
    42    18    29    2
    43    19    22    1
    44    19    33    1
    45    19    52    1
    46    20    53    1
    47    20    54    1
    48    21    28    1
    49    21    37    1
    50    21    39    1
    51    22    26    1
    52    22    34    1
    53    22    38    1
    54    23    26    1
    55    23    55    1
    56    23    56    1
    57    24    29    1
    58    24    57    1
    59    24    58    1
    60    25    31    1
    61    25    59    1
    62    25    60    1
    63    26    61    1
    64    27    62    1
    65    27    63    1
    66    27    64    1
    67    28    31    1
    68    28    65    1
    69    29    66    1
    70    30    67    1
    71    30    68    1
    72    30    69    1
    73    31    70    1
    74    31    71    1
    75    32    72    1
    76    32    73    1
    77    32    74    1
    78    33    35    1
    79    33    75    1
    80    33    76    1
    81    34    36    1
    82    34    77    1
    83    34    78    1
    84    35    36    1
    85    35    40    1
    86    35    41    1
    87    36    79    1
    88    37    80    1
    89    37    81    1
    90    38    82    1
    91    38    83    1
    92    39    84    1
    93    39    85    1
    94    39    86    1
    95    40    88    1
    96    40    89    1
    97    40    90    1
    98    41    91    1
    99    41    92    1
   100    41    93    1
   101    42    43    1
   102    42    95    1
   103    43    44    1
   104    43    98    1
   105    44    46    1
   106    44    99    1
   107    45    46    1
   108    45    47    1
   109    45   100    1
   110    46   101    1
