@<TRIPOS>MOLECULE
IMPHY007876
 26 28 0 0 0
SMALL
GASTEIGER

@<TRIPOS>ATOM
      1 C           2.5739   -0.5399    0.0000 C.3     1  UNL1       -0.0251
      2 C           2.3886    0.2332    0.0000 C.3     1  UNL1       -0.0266
      3 C           2.0000   -0.9599    0.0000 C.3     1  UNL1       -0.0312
      4 C           3.3827    0.3665    0.0000 C.3     1  UNL1       -0.0284
      5 C           4.0843   -0.3772    0.0000 C.3     1  UNL1       -0.0348
      6 C           3.2246   -0.7025    0.0000 C.3     1  UNL1       -0.0437
      7 C           3.3827   -1.3383    0.0000 C.3     1  UNL1       -0.0461
      8 C           2.8211    0.5832    0.0000 C.3     1  UNL1       -0.0590
      9 C           4.2341    0.8910    0.0000 C.3     1  UNL1       -0.0593
     10 C           3.1470    1.3383    0.0000 C.3     1  UNL1       -0.0593
     11 H           1.8445    0.8863    0.0000 H       1  UNL1        0.0314
     12 H           1.2518   -1.3633    0.0000 H       1  UNL1        0.0309
     13 H           4.9326   -0.3238    0.0000 H       1  UNL1        0.0306
     14 H           2.8920   -1.2257    0.0000 H       1  UNL1        0.0274
     15 H           3.1884   -0.0836    0.0000 H       1  UNL1        0.0274
     16 H           3.1480   -1.9122    0.0000 H       1  UNL1        0.0271
     17 H           3.9240   -1.6407    0.0000 H       1  UNL1        0.0271
     18 H           3.4266    0.4500    0.0000 H       1  UNL1        0.0235
     19 H           2.9543    1.1887    0.0000 H       1  UNL1        0.0235
     20 H           2.2156    0.7165    0.0000 H       1  UNL1        0.0235
     21 H           3.7495    1.4845    0.0000 H       1  UNL1        0.0235
     22 H           3.0008    1.9409    0.0000 H       1  UNL1        0.0235
     23 H           2.5444    1.1922    0.0000 H       1  UNL1        0.0235
     24 H           4.5593    0.3632    0.0000 H       1  UNL1        0.0235
     25 H           4.7620    1.2162    0.0000 H       1  UNL1        0.0235
     26 H           3.9089    1.4189    0.0000 H       1  UNL1        0.0235
@<TRIPOS>BOND
     1     1     2    1
     2     1     3    1
     3     1     6    1
     4     1     8    1
     5     2     3    1
     6     2     4    1
     7     2    11    1
     8     3     7    1
     9     3    12    1
    10     4     5    1
    11     4     9    1
    12     4    10    1
    13     5     6    1
    14     5     7    1
    15     5    13    1
    16     6    14    1
    17     6    15    1
    18     7    16    1
    19     7    17    1
    20     8    18    1
    21     8    19    1
    22     8    20    1
    23     9    24    1
    24     9    25    1
    25     9    26    1
    26    10    21    1
    27    10    22    1
    28    10    23    1
