@<TRIPOS>MOLECULE
IMPHY000203
 55 58 0 0 0
SMALL
GASTEIGER

@<TRIPOS>ATOM
      1 O           2.9176    1.0315    0.0000 O.3     1  UNL1       -0.3912
      2 O           7.8214    2.4061    0.0000 O.3     1  UNL1       -0.3709
      3 O           3.7782    1.5284    0.0000 O.3     1  UNL1       -0.3912
      4 C           3.8000   -0.5031    0.0000 C.3     1  UNL1        0.0060
      5 C           3.8000   -1.5031    0.0000 C.3     1  UNL1       -0.0272
      6 C           4.6660   -0.0031    0.0000 C.3     1  UNL1        0.0142
      7 C           2.9061   -2.0377    0.0000 C.3     1  UNL1       -0.0314
      8 C           2.9061    0.0316    0.0000 C.3     1  UNL1        0.0615
      9 C           4.6660   -2.0031    0.0000 C.3     1  UNL1       -0.0454
     10 C           5.5321   -0.5031    0.0000 C.2     1  UNL1       -0.0667
     11 C           4.6500    1.0385    0.0000 C.3     1  UNL1        0.0632
     12 C           2.0000   -1.5239    0.0000 C.3     1  UNL1       -0.0452
     13 C           6.4501    1.0454    0.0000 C.3     1  UNL1        0.0169
     14 C           5.5321   -1.5031    0.0000 C.3     1  UNL1       -0.0311
     15 C           2.0000   -0.4822    0.0000 C.3     1  UNL1       -0.0258
     16 C           5.5480    1.5662    0.0000 C.3     1  UNL1       -0.0150
     17 C           3.8000    0.4969    0.0000 C.3     1  UNL1       -0.0563
     18 C           6.4421    0.0038    0.0000 C.2     1  UNL1       -0.0759
     19 C           6.9534    1.9095    0.0000 C.3     1  UNL1        0.0909
     20 C           2.4161   -2.9095    0.0000 C.3     1  UNL1       -0.0595
     21 C           3.4160   -2.8979    0.0000 C.3     1  UNL1       -0.0595
     22 C           7.4501    1.0415    0.0000 C.3     1  UNL1       -0.0536
     23 C           6.9573    2.9095    0.0000 C.3     1  UNL1        0.0751
     24 H           3.8066   -2.3530    0.0000 H       1  UNL1        0.0312
     25 H           5.3989    0.4276    0.0000 H       1  UNL1        0.0377
     26 H           2.3721    0.3468    0.0000 H       1  UNL1        0.0599
     27 H           4.2675   -2.4780    0.0000 H       1  UNL1        0.0271
     28 H           5.0646   -2.4780    0.0000 H       1  UNL1        0.0271
     29 H           4.1173    0.7212    0.0000 H       1  UNL1        0.0599
     30 H           1.3891   -1.4178    0.0000 H       1  UNL1        0.0271
     31 H           1.7909   -2.1076    0.0000 H       1  UNL1        0.0271
     32 H           5.7441   -2.0857    0.0000 H       1  UNL1        0.0310
     33 H           6.1426   -1.3954    0.0000 H       1  UNL1        0.0310
     34 H           1.7909    0.1014    0.0000 H       1  UNL1        0.0290
     35 H           1.3891   -0.5883    0.0000 H       1  UNL1        0.0290
     36 H           5.9453    2.0422    0.0000 H       1  UNL1        0.0299
     37 H           5.1470    2.0391    0.0000 H       1  UNL1        0.0299
     38 H           4.4200    0.4969    0.0000 H       1  UNL1        0.0236
     39 H           3.8000    1.1169    0.0000 H       1  UNL1        0.0236
     40 H           3.1800    0.4969    0.0000 H       1  UNL1        0.0236
     41 H           6.9754   -0.3124    0.0000 H       1  UNL1        0.0578
     42 H           6.3552    2.0722    0.0000 H       1  UNL1        0.0627
     43 H           1.8756   -2.6057    0.0000 H       1  UNL1        0.0235
     44 H           2.8827   -3.2141    0.0000 H       1  UNL1        0.0235
     45 H           3.7322   -3.4312    0.0000 H       1  UNL1        0.0235
     46 H           2.1123   -3.4500    0.0000 H       1  UNL1        0.0235
     47 H           3.9494   -2.5817    0.0000 H       1  UNL1        0.0235
     48 H           2.9566   -3.2132    0.0000 H       1  UNL1        0.0235
     49 H           7.4477    0.4215    0.0000 H       1  UNL1        0.0239
     50 H           8.0701    1.0391    0.0000 H       1  UNL1        0.0239
     51 H           7.4525    1.6615    0.0000 H       1  UNL1        0.0239
     52 H           7.1716    3.4913    0.0000 H       1  UNL1        0.0586
     53 H           6.3471    3.0195    0.0000 H       1  UNL1        0.0586
     54 H           2.3843    1.3477    0.0000 H       1  UNL1        0.2098
     55 H           3.7711    2.1484    0.0000 H       1  UNL1        0.2098
@<TRIPOS>BOND
     1     8     1    1
     2     1    54    1
     3    19     2    1
     4     2    23    1
     5    11     3    1
     6     3    55    1
     7     4     5    1
     8     4     6    1
     9     4     8    1
    10     4    17    1
    11     5     7    1
    12     5     9    1
    13     5    24    1
    14     6    10    1
    15     6    11    1
    16     6    25    1
    17     7    12    1
    18     7    20    1
    19     7    21    1
    20     8    15    1
    21     8    26    1
    22     9    14    1
    23     9    27    1
    24     9    28    1
    25    10    14    1
    26    10    18    2
    27    11    16    1
    28    11    29    1
    29    12    15    1
    30    12    30    1
    31    12    31    1
    32    13    16    1
    33    13    18    1
    34    13    19    1
    35    13    22    1
    36    14    32    1
    37    14    33    1
    38    15    34    1
    39    15    35    1
    40    16    36    1
    41    16    37    1
    42    17    38    1
    43    17    39    1
    44    17    40    1
    45    18    41    1
    46    19    23    1
    47    19    42    1
    48    20    43    1
    49    20    46    1
    50    20    48    1
    51    21    44    1
    52    21    45    1
    53    21    47    1
    54    22    49    1
    55    22    50    1
    56    22    51    1
    57    23    52    1
    58    23    53    1
