@<TRIPOS>MOLECULE
IMPHY000727
 53 57 0 0 0
SMALL
GASTEIGER

@<TRIPOS>ATOM
      1 O           4.9386    0.9165    0.0000 O.3     1  UNL1       -0.3453
      2 O           3.7700   -1.9492    0.0000 O.3     1  UNL1       -0.4606
      3 O           6.0180    1.9861    0.0000 O.3     1  UNL1       -0.3621
      4 O           7.3024    1.2050    0.0000 O.3     1  UNL1       -0.3883
      5 O           4.6520    2.6201    0.0000 O.3     1  UNL1       -0.3821
      6 O           9.1371    0.2208    0.0000 O.3     1  UNL1       -0.3852
      7 O           2.0000   -1.9250    0.0000 O.2     1  UNL1       -0.2508
      8 C           4.6520   -0.3799    0.0000 C.3     1  UNL1        0.0466
      9 C           5.5180    0.1201    0.0000 C.3     1  UNL1        0.0359
     10 C           6.4278   -0.3679    0.0000 C.3     1  UNL1        0.0117
     11 C           5.5180    1.1201    0.0000 C.3     1  UNL1        0.2018
     12 C           4.6681   -1.4214    0.0000 C.3     1  UNL1        0.1123
     13 C           3.7860    0.1201    0.0000 C.3     1  UNL1        0.0040
     14 C           6.4521   -1.4000    0.0000 C.3     1  UNL1       -0.0084
     15 C           4.5386    0.2237    0.0000 C.3     1  UNL1        0.0610
     16 C           5.5663   -1.9303    0.0000 C.3     1  UNL1       -0.0079
     17 C           7.3375    0.2056    0.0000 C.3     1  UNL1        0.0909
     18 C           4.6520    1.6201    0.0000 C.3     1  UNL1        0.1301
     19 C           3.7860    1.1201    0.0000 C.2     1  UNL1       -0.0391
     20 C           6.4043    0.6318    0.0000 C.3     1  UNL1       -0.0561
     21 C           2.8760   -0.3868    0.0000 C.3     1  UNL1        0.0522
     22 C           7.3878   -1.9302    0.0000 C.2     1  UNL1       -0.0702
     23 C           8.2851   -0.3027    0.0000 C.3     1  UNL1        0.1000
     24 C           2.8680   -1.4284    0.0000 C.2     1  UNL1        0.3079
     25 C           8.3104   -1.3778    0.0000 C.2     1  UNL1       -0.0542
     26 C           2.9200    1.6201    0.0000 C.2     1  UNL1       -0.0966
     27 C           7.3998   -2.9301    0.0000 C.3     1  UNL1       -0.0434
     28 H           5.9430   -0.6160    0.0000 H       1  UNL1        0.0367
     29 H           4.6748   -2.2714    0.0000 H       1  UNL1        0.0740
     30 H           3.0499    0.5451    0.0000 H       1  UNL1        0.0359
     31 H           6.4623   -2.2500    0.0000 H       1  UNL1        0.0353
     32 H           4.1115    0.6731    0.0000 H       1  UNL1        0.0568
     33 H           3.9866   -0.0587    0.0000 H       1  UNL1        0.0568
     34 H           5.1729   -2.4095    0.0000 H       1  UNL1        0.0307
     35 H           5.9711   -2.4000    0.0000 H       1  UNL1        0.0307
     36 H           7.8638    0.5333    0.0000 H       1  UNL1        0.0628
     37 H           5.1889    1.9301    0.0000 H       1  UNL1        0.0695
     38 H           7.0241    0.6464    0.0000 H       1  UNL1        0.0236
     39 H           6.3897    1.2516    0.0000 H       1  UNL1        0.0236
     40 H           5.7844    0.6172    0.0000 H       1  UNL1        0.0236
     41 H           2.6714    0.1985    0.0000 H       1  UNL1        0.0384
     42 H           2.2643   -0.4881    0.0000 H       1  UNL1        0.0384
     43 H           8.2670    0.3170    0.0000 H       1  UNL1        0.0664
     44 H           5.7080    2.5230    0.0000 H       1  UNL1        0.2129
     45 H           8.8534   -1.6772    0.0000 H       1  UNL1        0.0598
     46 H           2.9200    2.2401    0.0000 H       1  UNL1        0.0535
     47 H           2.3830    1.3101    0.0000 H       1  UNL1        0.0535
     48 H           7.8281    1.5337    0.0000 H       1  UNL1        0.2099
     49 H           4.1151    2.9301    0.0000 H       1  UNL1        0.2105
     50 H           6.7798   -2.9375    0.0000 H       1  UNL1        0.0274
     51 H           7.4072   -3.5500    0.0000 H       1  UNL1        0.0274
     52 H           8.0197   -2.9226    0.0000 H       1  UNL1        0.0274
     53 H           9.6824   -0.0743    0.0000 H       1  UNL1        0.2103
@<TRIPOS>BOND
     1     1    11    1
     2     1    15    1
     3     2    12    1
     4     2    24    1
     5    11     3    1
     6     3    44    1
     7    17     4    1
     8     4    48    1
     9    18     5    1
    10     5    49    1
    11    23     6    1
    12     6    53    1
    13     7    24    2
    14     8     9    1
    15     8    12    1
    16     8    13    1
    17     8    15    1
    18     9    10    1
    19     9    11    1
    20     9    28    1
    21    10    14    1
    22    10    17    1
    23    10    20    1
    24    11    18    1
    25    12    16    1
    26    12    29    1
    27    13    19    1
    28    13    21    1
    29    13    30    1
    30    14    16    1
    31    14    22    1
    32    14    31    1
    33    15    32    1
    34    15    33    1
    35    16    34    1
    36    16    35    1
    37    17    23    1
    38    17    36    1
    39    18    19    1
    40    18    37    1
    41    19    26    2
    42    20    38    1
    43    20    39    1
    44    20    40    1
    45    21    24    1
    46    21    41    1
    47    21    42    1
    48    22    25    2
    49    22    27    1
    50    23    25    1
    51    23    43    1
    52    25    45    1
    53    26    46    1
    54    26    47    1
    55    27    50    1
    56    27    51    1
    57    27    52    1
