@<TRIPOS>MOLECULE
IMPHY000307
 82 87 0 0 0
SMALL
GASTEIGER

@<TRIPOS>ATOM
      1 O           7.5330    1.4284    0.0000 O.3     1  UNL1       -0.4542
      2 O           8.5342   -0.7066    0.0000 O.3     1  UNL1       -0.3878
      3 O           8.3556    3.0276    0.0000 O.2     1  UNL1       -0.2502
      4 O           2.1233   -2.4076    0.0000 O.3     1  UNL1       -0.3912
      5 C           6.7804    1.3248    0.0000 C.3     1  UNL1        0.0162
      6 C           7.6464    0.8248    0.0000 C.3     1  UNL1        0.1487
      7 C           5.8704    0.8180    0.0000 C.3     1  UNL1       -0.0195
      8 C           5.8623   -0.2236    0.0000 C.3     1  UNL1       -0.0269
      9 C           8.5124    1.3248    0.0000 C.3     1  UNL1        0.0182
     10 C           8.5124    2.3248    0.0000 C.3     1  UNL1        0.0743
     11 C           4.9269   -0.7733    0.0000 C.3     1  UNL1       -0.0252
     12 C           7.6624   -0.2167    0.0000 C.3     1  UNL1        0.0960
     13 C           6.7804    2.3248    0.0000 C.3     1  UNL1       -0.0424
     14 C           6.7644   -0.7444    0.0000 C.3     1  UNL1       -0.0192
     15 C           3.9873   -0.2308    0.0000 C.3     1  UNL1       -0.0278
     16 C           4.9435    1.3821    0.0000 C.3     1  UNL1       -0.0464
     17 C           7.6464    2.8248    0.0000 C.3     1  UNL1       -0.0362
     18 C           3.9956    0.8541    0.0000 C.3     1  UNL1       -0.0486
     19 C           9.4064    0.7902    0.0000 C.3     1  UNL1       -0.0403
     20 C           6.1376    2.0909    0.0000 C.3     1  UNL1       -0.0553
     21 C           9.4064    2.8595    0.0000 C.3     1  UNL1       -0.0364
     22 C           5.5356    1.7603    0.0000 C.3     1  UNL1       -0.0587
     23 C           2.9999   -0.7808    0.0000 C.3     1  UNL1       -0.0056
     24 C           7.9330    2.1212    0.0000 C.2     1  UNL1        0.3143
     25 C           4.9443   -1.9034    0.0000 C.3     1  UNL1       -0.0447
     26 C          10.3124    1.3040    0.0000 C.3     1  UNL1       -0.0344
     27 C          10.3124    2.3456    0.0000 C.3     1  UNL1       -0.0468
     28 C           5.7929   -1.2733    0.0000 C.3     1  UNL1       -0.0590
     29 C           2.9912   -1.9109    0.0000 C.3     1  UNL1        0.0606
     30 C           3.9700   -2.4760    0.0000 C.3     1  UNL1       -0.0258
     31 C           2.0000   -0.7692    0.0000 C.3     1  UNL1       -0.0572
     32 C           2.5100    0.0910    0.0000 C.3     1  UNL1       -0.0572
     33 C          11.3124    1.3002    0.0000 C.3     1  UNL1       -0.0598
     34 C          10.8091    0.4361    0.0000 C.3     1  UNL1       -0.0598
     35 H           5.8656   -1.0736    0.0000 H       1  UNL1        0.0312
     36 H           8.5124    0.4748    0.0000 H       1  UNL1        0.0351
     37 H           8.1952    0.1005    0.0000 H       1  UNL1        0.0633
     38 H           6.5683    2.9074    0.0000 H       1  UNL1        0.0272
     39 H           6.1698    2.2172    0.0000 H       1  UNL1        0.0272
     40 H           6.3671   -1.2204    0.0000 H       1  UNL1        0.0294
     41 H           7.1654   -1.2173    0.0000 H       1  UNL1        0.0294
     42 H           3.2561    0.2026    0.0000 H       1  UNL1        0.0312
     43 H           5.3517    1.8487    0.0000 H       1  UNL1        0.0271
     44 H           4.5536    1.8641    0.0000 H       1  UNL1        0.0271
     45 H           8.0449    3.2998    0.0000 H       1  UNL1        0.0276
     46 H           7.2479    3.2998    0.0000 H       1  UNL1        0.0276
     47 H           3.7911    1.4394    0.0000 H       1  UNL1        0.0268
     48 H           3.3840    0.7527    0.0000 H       1  UNL1        0.0268
     49 H           9.0018    0.3204    0.0000 H       1  UNL1        0.0275
     50 H           9.8000    0.3112    0.0000 H       1  UNL1        0.0275
     51 H           6.6125    2.4894    0.0000 H       1  UNL1        0.0236
     52 H           5.7390    2.5658    0.0000 H       1  UNL1        0.0236
     53 H           5.6626    1.6924    0.0000 H       1  UNL1        0.0236
     54 H           9.8000    3.3385    0.0000 H       1  UNL1        0.0276
     55 H           9.0018    3.3293    0.0000 H       1  UNL1        0.0276
     56 H           6.1198    1.9678    0.0000 H       1  UNL1        0.0235
     57 H           5.3280    2.3445    0.0000 H       1  UNL1        0.0235
     58 H           4.9514    1.5527    0.0000 H       1  UNL1        0.0235
     59 H           5.1624   -2.4838    0.0000 H       1  UNL1        0.0271
     60 H           5.5535   -1.7879    0.0000 H       1  UNL1        0.0271
     61 H          10.9233    2.2396    0.0000 H       1  UNL1        0.0271
     62 H          10.5215    2.9293    0.0000 H       1  UNL1        0.0271
     63 H           5.4829   -1.8103    0.0000 H       1  UNL1        0.0235
     64 H           6.3299   -1.5833    0.0000 H       1  UNL1        0.0235
     65 H           6.1029   -0.7364    0.0000 H       1  UNL1        0.0235
     66 H           2.9900   -2.5309    0.0000 H       1  UNL1        0.0599
     67 H           3.5727   -2.9520    0.0000 H       1  UNL1        0.0290
     68 H           4.3709   -2.9489    0.0000 H       1  UNL1        0.0290
     69 H           8.5414   -1.3266    0.0000 H       1  UNL1        0.2100
     70 H           2.0072   -0.1492    0.0000 H       1  UNL1        0.0236
     71 H           1.3800   -0.7620    0.0000 H       1  UNL1        0.0236
     72 H           1.9928   -1.3892    0.0000 H       1  UNL1        0.0236
     73 H           3.0505    0.3948    0.0000 H       1  UNL1        0.0236
     74 H           2.2062    0.6315    0.0000 H       1  UNL1        0.0236
     75 H           1.9695   -0.2128    0.0000 H       1  UNL1        0.0236
     76 H          11.3100    0.6802    0.0000 H       1  UNL1        0.0235
     77 H          11.9324    1.2978    0.0000 H       1  UNL1        0.0235
     78 H          11.3148    1.9202    0.0000 H       1  UNL1        0.0235
     79 H          10.2710    0.1281    0.0000 H       1  UNL1        0.0235
     80 H          11.1170   -0.1021    0.0000 H       1  UNL1        0.0235
     81 H          11.3472    0.7440    0.0000 H       1  UNL1        0.0235
     82 H           2.1209   -3.0276    0.0000 H       1  UNL1        0.2098
@<TRIPOS>BOND
     1     6     1    1
     2     1    24    1
     3    12     2    1
     4     2    69    1
     5     3    24    2
     6    29     4    1
     7     4    82    1
     8     5     6    1
     9     5     7    1
    10     5    13    1
    11     5    20    1
    12     6     9    1
    13     6    12    1
    14     7     8    1
    15     7    16    1
    16     7    22    1
    17     8    11    1
    18     8    14    1
    19     8    35    1
    20     9    10    1
    21     9    19    1
    22     9    36    1
    23    10    17    1
    24    10    21    1
    25    10    24    1
    26    11    15    1
    27    11    25    1
    28    11    28    1
    29    12    14    1
    30    12    37    1
    31    13    17    1
    32    13    38    1
    33    13    39    1
    34    14    40    1
    35    14    41    1
    36    15    18    1
    37    15    23    1
    38    15    42    1
    39    16    18    1
    40    16    43    1
    41    16    44    1
    42    17    45    1
    43    17    46    1
    44    18    47    1
    45    18    48    1
    46    19    26    1
    47    19    49    1
    48    19    50    1
    49    20    51    1
    50    20    52    1
    51    20    53    1
    52    21    27    1
    53    21    54    1
    54    21    55    1
    55    22    56    1
    56    22    57    1
    57    22    58    1
    58    23    29    1
    59    23    31    1
    60    23    32    1
    61    25    30    1
    62    25    59    1
    63    25    60    1
    64    26    27    1
    65    26    33    1
    66    26    34    1
    67    27    61    1
    68    27    62    1
    69    28    63    1
    70    28    64    1
    71    28    65    1
    72    29    30    1
    73    29    66    1
    74    30    67    1
    75    30    68    1
    76    31    70    1
    77    31    71    1
    78    31    72    1
    79    32    73    1
    80    32    74    1
    81    32    75    1
    82    33    76    1
    83    33    77    1
    84    33    78    1
    85    34    79    1
    86    34    80    1
    87    34    81    1
