@<TRIPOS>MOLECULE
IMPHY006921
 34 37 0 0 0
SMALL
GASTEIGER

@<TRIPOS>ATOM
      1 O           3.0229   -1.1899    0.0000 O.3     1  UNL1       -0.4566
      2 O           4.3723    1.9874    0.0000 O.3     1  UNL1       -0.4573
      3 O           6.0898   -2.5969    0.0000 O.2     1  UNL1       -0.4708
      4 O           2.9860   -2.9565    0.0000 O.2     1  UNL1       -0.2452
      5 O           2.8836    2.9565    0.0000 O.2     1  UNL1       -0.2453
      6 C           5.4476   -0.4844    0.0000 C.3     1  UNL1        0.0029
      7 C           4.5816   -0.9844    0.0000 C.3     1  UNL1        0.0406
      8 C           3.7155   -0.4844    0.0000 C.3     1  UNL1        0.1216
      9 C           3.7155    0.5156    0.0000 C.3     1  UNL1        0.0650
     10 C           4.5816    1.0156    0.0000 C.3     1  UNL1        0.1146
     11 C           5.4476    0.5156    0.0000 C.3     1  UNL1       -0.0053
     12 C           4.4419   -1.9552    0.0000 C.2     1  UNL1        0.0786
     13 C           6.3136    0.0156    0.0000 C.3     1  UNL1       -0.0552
     14 C           2.9785    1.1827    0.0000 C.2     1  UNL1        0.0396
     15 C           6.3581   -0.8489    0.0000 C.2     1  UNL1       -0.0424
     16 C           3.4607   -2.0763    0.0000 C.2     1  UNL1        0.3388
     17 C           3.3836    2.0905    0.0000 C.2     1  UNL1        0.3354
     18 C           5.1119   -2.6715    0.0000 C.2     1  UNL1        0.1019
     19 C           6.6434   -1.7872    0.0000 C.2     1  UNL1        0.0882
     20 C           2.0000    0.9765    0.0000 C.2     1  UNL1       -0.0882
     21 H           5.3177   -1.4094    0.0000 H       1  UNL1        0.0397
     22 H           2.9287   -0.1627    0.0000 H       1  UNL1        0.0748
     23 H           2.9386    0.1709    0.0000 H       1  UNL1        0.0423
     24 H           5.2686    1.5161    0.0000 H       1  UNL1        0.0741
     25 H           6.0582    0.4079    0.0000 H       1  UNL1        0.0309
     26 H           5.6596    1.0982    0.0000 H       1  UNL1        0.0309
     27 H           6.6236   -0.5213    0.0000 H       1  UNL1        0.0238
     28 H           6.8505    0.3256    0.0000 H       1  UNL1        0.0238
     29 H           6.0036    0.5525    0.0000 H       1  UNL1        0.0238
     30 H           6.8149   -0.4296    0.0000 H       1  UNL1        0.0608
     31 H           4.8869   -3.2492    0.0000 H       1  UNL1        0.1034
     32 H           7.2563   -1.8813    0.0000 H       1  UNL1        0.1026
     33 H           1.5859    1.4379    0.0000 H       1  UNL1        0.0540
     34 H           1.8074    0.3871    0.0000 H       1  UNL1        0.0540
@<TRIPOS>BOND
     1     1     8    1
     2     1    16    1
     3     2    10    1
     4     2    17    1
     5     3    18    1
     6     3    19    1
     7     4    16    2
     8     5    17    2
     9     6     7    1
    10     6    11    1
    11     6    13    1
    12     6    15    1
    13     7     8    1
    14     7    12    1
    15     7    21    1
    16     8     9    1
    17     8    22    1
    18     9    10    1
    19     9    14    1
    20     9    23    1
    21    10    11    1
    22    10    24    1
    23    11    25    1
    24    11    26    1
    25    12    16    1
    26    12    18    2
    27    13    27    1
    28    13    28    1
    29    13    29    1
    30    14    17    1
    31    14    20    2
    32    15    19    2
    33    15    30    1
    34    18    31    1
    35    19    32    1
    36    20    33    1
    37    20    34    1
