@<TRIPOS>MOLECULE
IMPHY001491
 42 44 0 0 0
SMALL
GASTEIGER

@<TRIPOS>ATOM
      1 O           5.5981    1.3581    0.0000 O.3     1  UNL1       -0.3912
      2 C           3.8660   -0.6419    0.0000 C.3     1  UNL1       -0.0210
      3 C           3.0000   -0.1419    0.0000 C.3     1  UNL1       -0.0293
      4 C           3.0000    0.8581    0.0000 C.3     1  UNL1       -0.0238
      5 C           3.8660    1.3581    0.0000 C.3     1  UNL1       -0.0007
      6 C           4.7320   -0.1419    0.0000 C.3     1  UNL1       -0.0201
      7 C           3.6568   -1.6138    0.0000 C.3     1  UNL1       -0.0379
      8 C           3.4660   -0.0419    0.0000 C.3     1  UNL1       -0.0462
      9 C           4.7320    0.8581    0.0000 C.3     1  UNL1        0.0616
     10 C           3.4660    0.7581    0.0000 C.3     1  UNL1       -0.0443
     11 C           2.2630   -0.8090    0.0000 C.3     1  UNL1       -0.0489
     12 C           2.6681   -1.7168    0.0000 C.3     1  UNL1       -0.0497
     13 C           2.5000    1.7241    0.0000 C.3     1  UNL1       -0.0590
     14 C           2.0000    0.8581    0.0000 C.3     1  UNL1       -0.0590
     15 C           3.8660    2.3581    0.0000 C.3     1  UNL1       -0.0567
     16 C           4.3247   -2.3581    0.0000 C.3     1  UNL1       -0.0619
     17 H           2.2639    0.2831    0.0000 H       1  UNL1        0.0312
     18 H           4.9441   -0.7246    0.0000 H       1  UNL1        0.0296
     19 H           5.3426   -0.0343    0.0000 H       1  UNL1        0.0296
     20 H           4.2560   -1.4546    0.0000 H       1  UNL1        0.0304
     21 H           2.8790    0.1576    0.0000 H       1  UNL1        0.0271
     22 H           4.0594    0.1377    0.0000 H       1  UNL1        0.0271
     23 H           4.7320    1.4781    0.0000 H       1  UNL1        0.0599
     24 H           3.0882    1.2497    0.0000 H       1  UNL1        0.0272
     25 H           4.0594    0.5784    0.0000 H       1  UNL1        0.0272
     26 H           1.8976   -0.3082    0.0000 H       1  UNL1        0.0268
     27 H           1.7265   -1.1198    0.0000 H       1  UNL1        0.0268
     28 H           2.0785   -1.9086    0.0000 H       1  UNL1        0.0268
     29 H           2.7968   -2.3233    0.0000 H       1  UNL1        0.0268
     30 H           3.0369    2.0341    0.0000 H       1  UNL1        0.0235
     31 H           2.1900    2.2610    0.0000 H       1  UNL1        0.0235
     32 H           1.9631    1.4141    0.0000 H       1  UNL1        0.0235
     33 H           2.0000    1.4781    0.0000 H       1  UNL1        0.0235
     34 H           1.3800    0.8581    0.0000 H       1  UNL1        0.0235
     35 H           2.0000    0.2381    0.0000 H       1  UNL1        0.0235
     36 H           4.4860    2.3581    0.0000 H       1  UNL1        0.0236
     37 H           3.8660    2.9781    0.0000 H       1  UNL1        0.0236
     38 H           3.2460    2.3581    0.0000 H       1  UNL1        0.0236
     39 H           3.8632   -2.7721    0.0000 H       1  UNL1        0.0233
     40 H           4.7387   -2.8195    0.0000 H       1  UNL1        0.0233
     41 H           4.7861   -1.9440    0.0000 H       1  UNL1        0.0233
     42 H           6.1350    1.0481    0.0000 H       1  UNL1        0.2098
@<TRIPOS>BOND
     1     9     1    1
     2     1    42    1
     3     2     3    1
     4     2     6    1
     5     2     7    1
     6     2     8    1
     7     3     4    1
     8     3    11    1
     9     3    17    1
    10     4     5    1
    11     4    13    1
    12     4    14    1
    13     5     9    1
    14     5    10    1
    15     5    15    1
    16     6     9    1
    17     6    18    1
    18     6    19    1
    19     7    12    1
    20     7    16    1
    21     7    20    1
    22     8    10    1
    23     8    21    1
    24     8    22    1
    25     9    23    1
    26    10    24    1
    27    10    25    1
    28    11    12    1
    29    11    26    1
    30    11    27    1
    31    12    28    1
    32    12    29    1
    33    13    30    1
    34    13    31    1
    35    13    32    1
    36    14    33    1
    37    14    34    1
    38    14    35    1
    39    15    36    1
    40    15    37    1
    41    15    38    1
    42    16    39    1
    43    16    40    1
    44    16    41    1
