@<TRIPOS>MOLECULE
IMPHY005596
 30 31 0 0 0
SMALL
GASTEIGER

@<TRIPOS>ATOM
      1 O           2.0000   -0.5633    0.0000 O.2     1  UNL1       -0.4293
      2 O           2.0000    2.4367    0.0000 O.3     1  UNL1       -0.4644
      3 O           2.8660   -2.0633    0.0000 O.2     1  UNL1       -0.2445
      4 O           3.7320    2.4367    0.0000 O.2     1  UNL1       -0.2448
      5 C           3.7320    0.4367    0.0000 C.ar    1  UNL1        0.0065
      6 C           3.7320   -0.5633    0.0000 C.ar    1  UNL1        0.0745
      7 C           4.6783   -0.8680    0.0000 C.2     1  UNL1       -0.0104
      8 C           4.6783    0.7415    0.0000 C.2     1  UNL1       -0.0523
      9 C           2.8660    0.9367    0.0000 C.ar    1  UNL1        0.1017
     10 C           5.2619   -0.0633    0.0000 C.2     1  UNL1       -0.0532
     11 C           2.8660   -1.0633    0.0000 C.ar    1  UNL1        0.3451
     12 C           4.9889   -1.8185    0.0000 C.2     1  UNL1       -0.0541
     13 C           2.0000    0.4367    0.0000 C.ar    1  UNL1        0.1105
     14 C           2.8660    1.9367    0.0000 C.2     1  UNL1        0.3425
     15 C           5.9674   -2.0247    0.0000 C.2     1  UNL1       -0.0654
     16 C           6.2781   -2.9753    0.0000 C.2     1  UNL1       -0.0871
     17 C           7.2566   -3.1815    0.0000 C.3     1  UNL1       -0.0465
     18 C           2.0000    3.4367    0.0000 C.3     1  UNL1        0.0820
     19 H           4.8709    1.3308    0.0000 H       1  UNL1        0.0624
     20 H           5.8819   -0.0633    0.0000 H       1  UNL1        0.0624
     21 H           4.5749   -2.2800    0.0000 H       1  UNL1        0.0624
     22 H           1.4631    0.7467    0.0000 H       1  UNL1        0.1039
     23 H           6.3815   -1.5633    0.0000 H       1  UNL1        0.0615
     24 H           5.8640   -3.4367    0.0000 H       1  UNL1        0.0569
     25 H           7.1288   -3.7882    0.0000 H       1  UNL1        0.0272
     26 H           7.8633   -3.3093    0.0000 H       1  UNL1        0.0272
     27 H           7.3845   -2.5748    0.0000 H       1  UNL1        0.0272
     28 H           2.6200    3.4367    0.0000 H       1  UNL1        0.0661
     29 H           2.0000    4.0567    0.0000 H       1  UNL1        0.0661
     30 H           1.3800    3.4367    0.0000 H       1  UNL1        0.0661
@<TRIPOS>BOND
     1     1    11   ar
     2     1    13   ar
     3     2    14    1
     4     2    18    1
     5     3    11    2
     6     4    14    2
     7     5     6   ar
     8     5     8    1
     9     5     9   ar
    10     6     7    1
    11     6    11   ar
    12     7    10    1
    13     7    12    2
    14     8    10    2
    15     8    19    1
    16     9    13   ar
    17     9    14    1
    18    10    20    1
    19    12    15    1
    20    12    21    1
    21    13    22    1
    22    15    16    2
    23    15    23    1
    24    16    17    1
    25    16    24    1
    26    17    25    1
    27    17    26    1
    28    17    27    1
    29    18    28    1
    30    18    29    1
    31    18    30    1
