@<TRIPOS>MOLECULE
IMPHY013524
 24 26 0 0 0
SMALL
GASTEIGER

@<TRIPOS>ATOM
      1 O           7.3424   -0.1964    0.0000 O.2     1  UNL1       -0.4591
      2 O           3.7702    0.0335    0.0000 O.2     1  UNL1       -0.4183
      3 O           5.5301    0.9989    0.0000 O.3     1  UNL1       -0.4884
      4 O           2.0000    0.0230    0.0000 O.2     1  UNL1       -0.2452
      5 C           6.3961   -1.5011    0.0000 C.ar    1  UNL1        0.0246
      6 C           6.3961   -0.5011    0.0000 C.ar    1  UNL1        0.1799
      7 C           4.6641   -1.5011    0.0000 C.ar    1  UNL1        0.0221
      8 C           4.6641   -0.5011    0.0000 C.ar    1  UNL1        0.1841
      9 C           5.5301   -0.0011    0.0000 C.ar    1  UNL1        0.2061
     10 C           5.5301   -2.0011    0.0000 C.ar    1  UNL1       -0.0401
     11 C           7.3424   -1.8059    0.0000 C.ar    1  UNL1       -0.0160
     12 C           3.7702   -2.0358    0.0000 C.ar    1  UNL1       -0.0442
     13 C           7.9260   -1.0011    0.0000 C.ar    1  UNL1        0.0933
     14 C           2.8641   -1.5220    0.0000 C.ar    1  UNL1        0.0236
     15 C           2.8641   -0.4803    0.0000 C.ar    1  UNL1        0.3373
     16 C           6.3961    1.4989    0.0000 C.3     1  UNL1        0.0791
     17 H           5.5301   -2.6211    0.0000 H       1  UNL1        0.0632
     18 H           7.5350   -2.3952    0.0000 H       1  UNL1        0.0655
     19 H           3.7773   -2.6558    0.0000 H       1  UNL1        0.0627
     20 H           8.5460   -1.0011    0.0000 H       1  UNL1        0.1030
     21 H           2.3284   -1.8340    0.0000 H       1  UNL1        0.0689
     22 H           6.9331    1.8089    0.0000 H       1  UNL1        0.0660
     23 H           6.0862    2.0358    0.0000 H       1  UNL1        0.0660
     24 H           6.7062    0.9619    0.0000 H       1  UNL1        0.0660
@<TRIPOS>BOND
     1     1     6   ar
     2     1    13   ar
     3     2     8   ar
     4     2    15   ar
     5     3     9    1
     6     3    16    1
     7     4    15    2
     8     5     6   ar
     9     5    10   ar
    10     5    11   ar
    11     6     9   ar
    12     7     8   ar
    13     7    10   ar
    14     7    12   ar
    15     8     9   ar
    16    10    17    1
    17    11    13   ar
    18    11    18    1
    19    12    14   ar
    20    12    19    1
    21    13    20    1
    22    14    15   ar
    23    14    21    1
    24    16    22    1
    25    16    23    1
    26    16    24    1
