@<TRIPOS>MOLECULE
IMPHY000289
 49 50 0 0 0
SMALL
GASTEIGER

@<TRIPOS>ATOM
      1 O          15.9366    0.3047    0.0000 O.3     1  UNL1       -0.4526
      2 O          15.9366   -1.3047    0.0000 O.3     1  UNL1       -0.4526
      3 O           5.4641    1.5000    0.0000 O.2     1  UNL1       -0.2708
      4 N           4.5981   -0.0000    0.0000 N.am    1  UNL1       -0.3116
      5 C           2.8660   -0.0000    0.0000 C.3     1  UNL1       -0.0311
      6 C           3.7320    0.5000    0.0000 C.3     1  UNL1        0.0142
      7 C           2.0000    0.5000    0.0000 C.3     1  UNL1       -0.0612
      8 C           2.8660   -1.0000    0.0000 C.3     1  UNL1       -0.0612
      9 C          13.2583    0.0000    0.0000 C.ar    1  UNL1       -0.0216
     10 C          14.9904    0.0000    0.0000 C.ar    1  UNL1        0.1668
     11 C          10.6603    0.5000    0.0000 C.3     1  UNL1       -0.0310
     12 C          14.9904   -1.0000    0.0000 C.ar    1  UNL1        0.1663
     13 C           9.7942    0.0000    0.0000 C.3     1  UNL1       -0.0310
     14 C          14.1244    0.5000    0.0000 C.ar    1  UNL1       -0.0090
     15 C          12.3923    0.5000    0.0000 C.2     1  UNL1       -0.0584
     16 C          13.2583   -1.0000    0.0000 C.ar    1  UNL1       -0.0509
     17 C           5.4641    0.5000    0.0000 C.2     1  UNL1        0.2369
     18 C          11.5263    0.0000    0.0000 C.2     1  UNL1       -0.0832
     19 C          14.1244   -1.5000    0.0000 C.ar    1  UNL1       -0.0156
     20 C          16.5202   -0.5000    0.0000 C.3     1  UNL1        0.2332
     21 C           8.9282    0.5000    0.0000 C.2     1  UNL1       -0.0837
     22 C           6.3301   -0.0000    0.0000 C.2     1  UNL1        0.0001
     23 C           8.0622   -0.0000    0.0000 C.2     1  UNL1       -0.0655
     24 C           7.1962    0.5000    0.0000 C.2     1  UNL1       -0.0571
     25 H           2.8660    0.6200    0.0000 H       1  UNL1        0.0311
     26 H           4.1306    0.9749    0.0000 H       1  UNL1        0.0465
     27 H           3.3335    0.9749    0.0000 H       1  UNL1        0.0465
     28 H           2.3100    1.0369    0.0000 H       1  UNL1        0.0233
     29 H           1.4631    0.8100    0.0000 H       1  UNL1        0.0233
     30 H           1.6900   -0.0369    0.0000 H       1  UNL1        0.0233
     31 H           2.2460   -1.0000    0.0000 H       1  UNL1        0.0233
     32 H           2.8660   -1.6200    0.0000 H       1  UNL1        0.0233
     33 H           3.4860   -1.0000    0.0000 H       1  UNL1        0.0233
     34 H           4.5981   -0.6200    0.0000 H       1  UNL1        0.1490
     35 H          11.0588    0.9749    0.0000 H       1  UNL1        0.0310
     36 H          10.2617    0.9749    0.0000 H       1  UNL1        0.0310
     37 H           9.3957   -0.4749    0.0000 H       1  UNL1        0.0310
     38 H          10.1928   -0.4749    0.0000 H       1  UNL1        0.0310
     39 H          14.1244    1.1200    0.0000 H       1  UNL1        0.0661
     40 H          12.3923    1.1200    0.0000 H       1  UNL1        0.0620
     41 H          12.7214   -1.3100    0.0000 H       1  UNL1        0.0625
     42 H          11.5263   -0.6200    0.0000 H       1  UNL1        0.0572
     43 H          14.1244   -2.1200    0.0000 H       1  UNL1        0.0655
     44 H          16.9811   -0.9147    0.0000 H       1  UNL1        0.1166
     45 H          16.9811   -0.0853    0.0000 H       1  UNL1        0.1166
     46 H           8.9282    1.1200    0.0000 H       1  UNL1        0.0572
     47 H           6.3301   -0.6200    0.0000 H       1  UNL1        0.0669
     48 H           8.0622   -0.6200    0.0000 H       1  UNL1        0.0614
     49 H           7.1962    1.1200    0.0000 H       1  UNL1        0.0619
@<TRIPOS>BOND
     1     1    10    1
     2     1    20    1
     3     2    12    1
     4     2    20    1
     5     3    17    2
     6     4     6    1
     7     4    17   am
     8     4    34    1
     9     5     6    1
    10     5     7    1
    11     5     8    1
    12     5    25    1
    13     6    26    1
    14     6    27    1
    15     7    28    1
    16     7    29    1
    17     7    30    1
    18     8    31    1
    19     8    32    1
    20     8    33    1
    21     9    14   ar
    22     9    15    1
    23     9    16   ar
    24    10    12   ar
    25    10    14   ar
    26    11    13    1
    27    11    18    1
    28    11    35    1
    29    11    36    1
    30    12    19   ar
    31    13    21    1
    32    13    37    1
    33    13    38    1
    34    14    39    1
    35    15    18    2
    36    15    40    1
    37    16    19   ar
    38    16    41    1
    39    17    22    1
    40    18    42    1
    41    19    43    1
    42    20    44    1
    43    20    45    1
    44    21    23    2
    45    21    46    1
    46    22    24    2
    47    22    47    1
    48    23    24    1
    49    23    48    1
    50    24    49    1
