@<TRIPOS>MOLECULE
IMPHY013790
 20 20 0 0 0
SMALL
GASTEIGER

@<TRIPOS>ATOM
      1 O           5.1350    1.9050    0.0000 O.3     1  UNL1       -0.4644
      2 O           2.5369    0.4050    0.0000 O.3     1  UNL1       -0.5058
      3 O           4.2690   -2.5950    0.0000 O.3     1  UNL1       -0.5066
      4 O           3.4030    1.9050    0.0000 O.2     1  UNL1       -0.2448
      5 C           4.2690    0.4050    0.0000 C.ar    1  UNL1        0.1005
      6 C           3.4030   -0.0950    0.0000 C.ar    1  UNL1        0.1343
      7 C           5.1350   -0.0950    0.0000 C.ar    1  UNL1       -0.0408
      8 C           3.4030   -1.0950    0.0000 C.ar    1  UNL1        0.0221
      9 C           4.2690   -1.5950    0.0000 C.ar    1  UNL1        0.1204
     10 C           5.1350   -1.0950    0.0000 C.ar    1  UNL1       -0.0192
     11 C           4.2690    1.4050    0.0000 C.2     1  UNL1        0.3425
     12 C           5.1350    2.9050    0.0000 C.3     1  UNL1        0.0820
     13 H           5.6720    0.2150    0.0000 H       1  UNL1        0.0628
     14 H           2.8660   -1.4050    0.0000 H       1  UNL1        0.0691
     15 H           5.6720   -1.4050    0.0000 H       1  UNL1        0.0654
     16 H           2.0000    0.0950    0.0000 H       1  UNL1        0.2922
     17 H           5.7550    2.9050    0.0000 H       1  UNL1        0.0661
     18 H           5.1350    3.5250    0.0000 H       1  UNL1        0.0661
     19 H           4.5150    2.9050    0.0000 H       1  UNL1        0.0661
     20 H           4.8059   -2.9050    0.0000 H       1  UNL1        0.2921
@<TRIPOS>BOND
     1     1    11    1
     2     1    12    1
     3     2     6    1
     4     2    16    1
     5     3     9    1
     6     3    20    1
     7     4    11    2
     8     5     6   ar
     9     5     7   ar
    10     5    11    1
    11     6     8   ar
    12     7    10   ar
    13     7    13    1
    14     8     9   ar
    15     8    14    1
    16     9    10   ar
    17    10    15    1
    18    12    17    1
    19    12    18    1
    20    12    19    1
