@<TRIPOS>MOLECULE
IMPHY016722
 39 41 0 0 0
SMALL
GASTEIGER

@<TRIPOS>ATOM
      1 C           2.9837   -0.7888    0.0000 C.3     1  UNL1       -0.0227
      2 C           2.9944    0.0729    0.0000 C.3     1  UNL1       -0.0056
      3 C           3.8307   -0.3299    0.0000 C.3     1  UNL1       -0.0283
      4 C           4.6671    0.0729    0.0000 C.3     1  UNL1       -0.0315
      5 C           4.6857   -0.7888    0.0000 C.3     1  UNL1       -0.0432
      6 C           3.4517   -1.7036    0.0000 C.3     1  UNL1       -0.0465
      7 C           4.3240   -1.2993    0.0000 C.3     1  UNL1       -0.0486
      8 C           4.8736    0.9779    0.0000 C.3     1  UNL1       -0.0283
      9 C           2.0101   -1.0170    0.0000 C.3     1  UNL1       -0.0588
     10 C           2.7879    0.9779    0.0000 C.2     1  UNL1       -0.0812
     11 C           2.0000   -0.0329    0.0000 C.3     1  UNL1       -0.0553
     12 C           4.2949    1.7036    0.0000 C.3     1  UNL1       -0.0293
     13 C           3.3666    1.7036    0.0000 C.2     1  UNL1       -0.0869
     14 C           5.6067    1.6580    0.0000 C.3     1  UNL1       -0.0593
     15 C           5.8624    0.8288    0.0000 C.3     1  UNL1       -0.0593
     16 H           4.4182   -0.5282    0.0000 H       1  UNL1        0.0312
     17 H           5.2839    0.0102    0.0000 H       1  UNL1        0.0309
     18 H           4.6902   -1.4088    0.0000 H       1  UNL1        0.0274
     19 H           5.3057   -0.7798    0.0000 H       1  UNL1        0.0274
     20 H           2.8962   -1.9788    0.0000 H       1  UNL1        0.0271
     21 H           3.7197   -2.2626    0.0000 H       1  UNL1        0.0271
     22 H           4.5916   -1.8586    0.0000 H       1  UNL1        0.0268
     23 H           4.8800   -1.0249    0.0000 H       1  UNL1        0.0268
     24 H           1.8686   -0.4134    0.0000 H       1  UNL1        0.0235
     25 H           1.4065   -1.1585    0.0000 H       1  UNL1        0.0235
     26 H           2.1516   -1.6206    0.0000 H       1  UNL1        0.0235
     27 H           2.1834    1.1158    0.0000 H       1  UNL1        0.0575
     28 H           1.9344    0.5837    0.0000 H       1  UNL1        0.0238
     29 H           1.3835   -0.0984    0.0000 H       1  UNL1        0.0238
     30 H           2.0656   -0.6494    0.0000 H       1  UNL1        0.0238
     31 H           4.8535    1.9726    0.0000 H       1  UNL1        0.0313
     32 H           4.1569    2.3080    0.0000 H       1  UNL1        0.0313
     33 H           3.0976    2.2622    0.0000 H       1  UNL1        0.0569
     34 H           6.0284    1.2035    0.0000 H       1  UNL1        0.0235
     35 H           6.0612    2.0797    0.0000 H       1  UNL1        0.0235
     36 H           5.1850    2.1125    0.0000 H       1  UNL1        0.0235
     37 H           5.7700    0.2157    0.0000 H       1  UNL1        0.0235
     38 H           6.4755    0.7364    0.0000 H       1  UNL1        0.0235
     39 H           5.9549    1.4419    0.0000 H       1  UNL1        0.0235
@<TRIPOS>BOND
     1     1     2    1
     2     1     5    1
     3     1     6    1
     4     1     9    1
     5     2     3    1
     6     2    10    1
     7     2    11    1
     8     3     4    1
     9     3     7    1
    10     3    16    1
    11     4     5    1
    12     4     8    1
    13     4    17    1
    14     5    18    1
    15     5    19    1
    16     6     7    1
    17     6    20    1
    18     6    21    1
    19     7    22    1
    20     7    23    1
    21     8    12    1
    22     8    14    1
    23     8    15    1
    24     9    24    1
    25     9    25    1
    26     9    26    1
    27    10    13    2
    28    10    27    1
    29    11    28    1
    30    11    29    1
    31    11    30    1
    32    12    13    1
    33    12    31    1
    34    12    32    1
    35    13    33    1
    36    14    34    1
    37    14    35    1
    38    14    36    1
    39    15    37    1
    40    15    38    1
    41    15    39    1
