@<TRIPOS>MOLECULE
IMPHY016147
 19 20 0 0 0
SMALL
GASTEIGER

@<TRIPOS>ATOM
      1 O           2.8660   -1.3623    0.0000 O.3     1  UNL1       -0.5062
      2 C           3.7320    0.1377    0.0000 C.ar    1  UNL1        0.0236
      3 C           3.7320    1.1377    0.0000 C.ar    1  UNL1       -0.0144
      4 C           2.8660   -0.3623    0.0000 C.ar    1  UNL1        0.1245
      5 C           2.8660    1.6377    0.0000 C.ar    1  UNL1       -0.0538
      6 C           4.6260   -0.3970    0.0000 C.ar    1  UNL1       -0.0505
      7 C           4.6260    1.6723    0.0000 C.ar    1  UNL1       -0.0539
      8 C           2.0000    0.1377    0.0000 C.ar    1  UNL1       -0.0196
      9 C           2.0000    1.1377    0.0000 C.ar    1  UNL1       -0.0577
     10 C           5.5321    0.1169    0.0000 C.ar    1  UNL1       -0.0611
     11 C           5.5321    1.1585    0.0000 C.ar    1  UNL1       -0.0612
     12 H           2.8660    2.2577    0.0000 H       1  UNL1        0.0624
     13 H           4.6188   -1.0170    0.0000 H       1  UNL1        0.0625
     14 H           4.6188    2.2923    0.0000 H       1  UNL1        0.0624
     15 H           1.4631   -0.1723    0.0000 H       1  UNL1        0.0654
     16 H           1.4631    1.4477    0.0000 H       1  UNL1        0.0619
     17 H           6.0678   -0.1952    0.0000 H       1  UNL1        0.0618
     18 H           6.0678    1.4706    0.0000 H       1  UNL1        0.0618
     19 H           2.3291   -1.6723    0.0000 H       1  UNL1        0.2922
@<TRIPOS>BOND
     1     1     4    1
     2     1    19    1
     3     2     3   ar
     4     2     4   ar
     5     2     6   ar
     6     3     5   ar
     7     3     7   ar
     8     4     8   ar
     9     5     9   ar
    10     5    12    1
    11     6    10   ar
    12     6    13    1
    13     7    11   ar
    14     7    14    1
    15     8     9   ar
    16     8    15    1
    17     9    16    1
    18    10    11   ar
    19    10    17    1
    20    11    18    1
