@<TRIPOS>MOLECULE
IMPHY017326
 24 24 0 0 0
SMALL
GASTEIGER

@<TRIPOS>ATOM
      1 O           2.0000   -2.1900    0.0000 O.3     1  UNL1       -0.3947
      2 O           3.7320    2.8100    0.0000 O.2     1  UNL1       -0.3007
      3 C           2.8660   -0.6900    0.0000 C.3     1  UNL1       -0.0178
      4 C           3.7320   -0.1900    0.0000 C.3     1  UNL1       -0.0475
      5 C           2.0000   -0.1900    0.0000 C.3     1  UNL1       -0.0475
      6 C           2.8660    1.3100    0.0000 C.3     1  UNL1        0.0145
      7 C           3.7320    0.8100    0.0000 C.3     1  UNL1       -0.0435
      8 C           2.0000    0.8100    0.0000 C.3     1  UNL1       -0.0435
      9 C           2.8660   -1.6900    0.0000 C.3     1  UNL1        0.0470
     10 C           2.8660    2.3100    0.0000 C.2     1  UNL1        0.1234
     11 H           3.4030   -1.0000    0.0000 H       1  UNL1        0.0323
     12 H           3.9441   -0.7726    0.0000 H       1  UNL1        0.0269
     13 H           4.3426   -0.0823    0.0000 H       1  UNL1        0.0269
     14 H           1.3894   -0.0823    0.0000 H       1  UNL1        0.0269
     15 H           1.7880   -0.7726    0.0000 H       1  UNL1        0.0269
     16 H           3.4030    1.6200    0.0000 H       1  UNL1        0.0374
     17 H           4.3426    0.7023    0.0000 H       1  UNL1        0.0272
     18 H           3.9441    1.3926    0.0000 H       1  UNL1        0.0272
     19 H           1.7880    1.3926    0.0000 H       1  UNL1        0.0272
     20 H           1.3894    0.7023    0.0000 H       1  UNL1        0.0272
     21 H           3.0781   -2.2726    0.0000 H       1  UNL1        0.0560
     22 H           3.4766   -1.5823    0.0000 H       1  UNL1        0.0560
     23 H           2.3291    2.6200    0.0000 H       1  UNL1        0.1029
     24 H           2.0000   -2.8100    0.0000 H       1  UNL1        0.2094
@<TRIPOS>BOND
     1     1     9    1
     2     1    24    1
     3     2    10    2
     4     3     4    1
     5     3     5    1
     6     3     9    1
     7     3    11    1
     8     4     7    1
     9     4    12    1
    10     4    13    1
    11     5     8    1
    12     5    14    1
    13     5    15    1
    14     6     7    1
    15     6     8    1
    16     6    10    1
    17     6    16    1
    18     7    17    1
    19     7    18    1
    20     8    19    1
    21     8    20    1
    22     9    21    1
    23     9    22    1
    24    10    23    1
