@<TRIPOS>MOLECULE
IMPHY000117
 60 63 0 0 0
SMALL
GASTEIGER

@<TRIPOS>ATOM
      1 O           8.3127    0.6574    0.0000 O.3     1  UNL1       -0.3849
      2 O           9.0969    1.5578    0.0000 O.3     1  UNL1       -0.4619
      3 O           2.0000   -2.7043    0.0000 O.2     1  UNL1       -0.3004
      4 O           9.5494    3.2297    0.0000 O.2     1  UNL1       -0.2512
      5 C           6.2038   -0.2134    0.0000 C.3     1  UNL1       -0.0228
      6 C           5.3352    0.2823    0.0000 C.3     1  UNL1       -0.0296
      7 C           4.4278   -0.2291    0.0000 C.3     1  UNL1       -0.0250
      8 C           4.4250   -1.2707    0.0000 C.3     1  UNL1       -0.0235
      9 C           6.1793    0.9680    0.0000 C.3     1  UNL1       -0.0414
     10 C           6.8554    1.9371    0.0000 C.3     1  UNL1       -0.0084
     11 C           7.1328    0.1566    0.0000 C.3     1  UNL1       -0.0146
     12 C           6.2250   -1.2548    0.0000 C.3     1  UNL1       -0.0467
     13 C           7.4228    1.1136    0.0000 C.3     1  UNL1        0.1033
     14 C           5.1813    1.2704    0.0000 C.3     1  UNL1       -0.0489
     15 C           5.3296   -1.7870    0.0000 C.3     1  UNL1       -0.0483
     16 C           5.8578    2.0068    0.0000 C.3     1  UNL1       -0.0472
     17 C           3.4923   -1.8251    0.0000 C.3     1  UNL1        0.0265
     18 C           3.4982    0.3304    0.0000 C.3     1  UNL1       -0.0470
     19 C           4.0883    0.7116    0.0000 C.3     1  UNL1       -0.0590
     20 C           2.5500   -1.2873    0.0000 C.3     1  UNL1       -0.0409
     21 C           2.5529   -0.2023    0.0000 C.3     1  UNL1       -0.0517
     22 C           8.1317    1.8190    0.0000 C.3     1  UNL1        0.1213
     23 C           3.9999   -2.6867    0.0000 C.3     1  UNL1       -0.0528
     24 C           3.0000   -2.6955    0.0000 C.2     1  UNL1        0.1264
     25 C           9.8058    2.2631    0.0000 C.2     1  UNL1        0.3040
     26 C          10.7711    2.0019    0.0000 C.3     1  UNL1        0.0332
     27 H           4.5970    0.7036    0.0000 H       1  UNL1        0.0311
     28 H           4.4325   -2.1207    0.0000 H       1  UNL1        0.0315
     29 H           5.8050    1.4623    0.0000 H       1  UNL1        0.0274
     30 H           5.5936    0.7645    0.0000 H       1  UNL1        0.0274
     31 H           7.1018    2.7505    0.0000 H       1  UNL1        0.0330
     32 H           7.2283   -0.4560    0.0000 H       1  UNL1        0.0299
     33 H           7.7513    0.1134    0.0000 H       1  UNL1        0.0299
     34 H           6.4459   -1.8341    0.0000 H       1  UNL1        0.0271
     35 H           6.8336   -1.1362    0.0000 H       1  UNL1        0.0271
     36 H           4.8295    1.7809    0.0000 H       1  UNL1        0.0268
     37 H           4.6053    1.0410    0.0000 H       1  UNL1        0.0268
     38 H           4.9347   -2.2649    0.0000 H       1  UNL1        0.0269
     39 H           5.7329   -2.2579    0.0000 H       1  UNL1        0.0269
     40 H           6.0376    2.6002    0.0000 H       1  UNL1        0.0269
     41 H           5.3193    2.3141    0.0000 H       1  UNL1        0.0269
     42 H           3.9040    0.7991    0.0000 H       1  UNL1        0.0271
     43 H           3.1058    0.8105    0.0000 H       1  UNL1        0.0271
     44 H           4.6715    0.9220    0.0000 H       1  UNL1        0.0235
     45 H           3.8779    1.2947    0.0000 H       1  UNL1        0.0235
     46 H           3.5052    0.5011    0.0000 H       1  UNL1        0.0235
     47 H           1.9394   -1.1795    0.0000 H       1  UNL1        0.0275
     48 H           2.3393   -1.8704    0.0000 H       1  UNL1        0.0275
     49 H           2.3454    0.3820    0.0000 H       1  UNL1        0.0266
     50 H           1.9418   -0.3067    0.0000 H       1  UNL1        0.0266
     51 H           8.3951    2.3802    0.0000 H       1  UNL1        0.0727
     52 H           7.6247    2.1759    0.0000 H       1  UNL1        0.0727
     53 H           3.4658   -3.0014    0.0000 H       1  UNL1        0.0239
     54 H           4.3147   -3.2208    0.0000 H       1  UNL1        0.0239
     55 H           4.5341   -2.3719    0.0000 H       1  UNL1        0.0239
     56 H           8.3436    0.0382    0.0000 H       1  UNL1        0.2103
     57 H           3.3147   -3.2297    0.0000 H       1  UNL1        0.1032
     58 H          10.6091    1.4034    0.0000 H       1  UNL1        0.0342
     59 H          11.3695    1.8399    0.0000 H       1  UNL1        0.0342
     60 H          10.9330    2.6003    0.0000 H       1  UNL1        0.0342
@<TRIPOS>BOND
     1    13     1    1
     2     1    56    1
     3     2    22    1
     4     2    25    1
     5     3    24    2
     6     4    25    2
     7     5     6    1
     8     5     9    1
     9     5    11    1
    10     5    12    1
    11     6     7    1
    12     6    14    1
    13     6    27    1
    14     7     8    1
    15     7    18    1
    16     7    19    1
    17     8    15    1
    18     8    17    1
    19     8    28    1
    20     9    10    1
    21     9    29    1
    22     9    30    1
    23    10    13    1
    24    10    16    1
    25    10    31    1
    26    11    13    1
    27    11    32    1
    28    11    33    1
    29    12    15    1
    30    12    34    1
    31    12    35    1
    32    13    22    1
    33    14    16    1
    34    14    36    1
    35    14    37    1
    36    15    38    1
    37    15    39    1
    38    16    40    1
    39    16    41    1
    40    17    20    1
    41    17    23    1
    42    17    24    1
    43    18    21    1
    44    18    42    1
    45    18    43    1
    46    19    44    1
    47    19    45    1
    48    19    46    1
    49    20    21    1
    50    20    47    1
    51    20    48    1
    52    21    49    1
    53    21    50    1
    54    22    51    1
    55    22    52    1
    56    23    53    1
    57    23    54    1
    58    23    55    1
    59    24    57    1
    60    25    26    1
    61    26    58    1
    62    26    59    1
    63    26    60    1
