@<TRIPOS>MOLECULE
IMPHY017603
 45 47 0 0 0
SMALL
GASTEIGER

@<TRIPOS>ATOM
      1 O           4.4453   -2.0863    0.0000 O.3     1  UNL1       -0.4645
      2 O           6.1272   -2.4998    0.0000 O.2     1  UNL1       -0.2512
      3 C           4.0984    0.5618    0.0000 C.3     1  UNL1       -0.0165
      4 C           3.1974    0.9957    0.0000 C.3     1  UNL1       -0.0136
      5 C           4.5984    2.7525    0.0000 C.3     1  UNL1       -0.0316
      6 C           3.9916    1.7386    0.0000 C.3     1  UNL1       -0.0428
      7 C           3.9624   -0.4229    0.0000 C.3     1  UNL1       -0.0005
      8 C           4.9994    0.9957    0.0000 C.3     1  UNL1       -0.0462
      9 C           3.5984    2.7525    0.0000 C.3     1  UNL1       -0.0110
     10 C           5.2219    1.9706    0.0000 C.3     1  UNL1       -0.0489
     11 C           2.5124    0.2754    0.0000 C.3     1  UNL1       -0.0456
     12 C           2.9749    1.9706    0.0000 C.2     1  UNL1       -0.0671
     13 C           2.9842   -0.5996    0.0000 C.3     1  UNL1       -0.0460
     14 C           4.6840   -1.1152    0.0000 C.3     1  UNL1        0.0958
     15 C           2.7722    3.3158    0.0000 C.3     1  UNL1       -0.0558
     16 C           3.6732    3.7497    0.0000 C.3     1  UNL1       -0.0558
     17 C           2.0000    2.1932    0.0000 C.2     1  UNL1       -0.0986
     18 C           5.1669   -2.7786    0.0000 C.2     1  UNL1        0.3040
     19 C           4.9281   -3.7497    0.0000 C.3     1  UNL1        0.0332
     20 H           2.5996    1.1599    0.0000 H       1  UNL1        0.0351
     21 H           4.7876    3.5812    0.0000 H       1  UNL1        0.0309
     22 H           3.5838    2.2056    0.0000 H       1  UNL1        0.0274
     23 H           3.4215    1.4948    0.0000 H       1  UNL1        0.0274
     24 H           3.7833   -1.0165    0.0000 H       1  UNL1        0.0339
     25 H           5.1374    0.3913    0.0000 H       1  UNL1        0.0271
     26 H           5.6194    0.9957    0.0000 H       1  UNL1        0.0271
     27 H           5.7805    1.7016    0.0000 H       1  UNL1        0.0268
     28 H           5.6085    2.4554    0.0000 H       1  UNL1        0.0268
     29 H           2.1105    0.7476    0.0000 H       1  UNL1        0.0271
     30 H           2.0006   -0.0746    0.0000 H       1  UNL1        0.0271
     31 H           2.4105   -0.8348    0.0000 H       1  UNL1        0.0269
     32 H           3.1579   -1.1947    0.0000 H       1  UNL1        0.0269
     33 H           5.2512   -1.3655    0.0000 H       1  UNL1        0.0700
     34 H           5.0290   -0.6001    0.0000 H       1  UNL1        0.0700
     35 H           3.1214    3.8281    0.0000 H       1  UNL1        0.0238
     36 H           2.2599    3.6651    0.0000 H       1  UNL1        0.0238
     37 H           2.4229    2.8035    0.0000 H       1  UNL1        0.0238
     38 H           4.2914    3.7034    0.0000 H       1  UNL1        0.0238
     39 H           3.7195    4.3680    0.0000 H       1  UNL1        0.0238
     40 H           3.0549    3.7960    0.0000 H       1  UNL1        0.0238
     41 H           1.8172    2.7856    0.0000 H       1  UNL1        0.0535
     42 H           1.5783    1.7387    0.0000 H       1  UNL1        0.0535
     43 H           4.3260   -3.6016    0.0000 H       1  UNL1        0.0342
     44 H           4.7801   -4.3518    0.0000 H       1  UNL1        0.0342
     45 H           5.5302   -3.8977    0.0000 H       1  UNL1        0.0342
@<TRIPOS>BOND
     1     1    14    1
     2     1    18    1
     3     2    18    2
     4     3     4    1
     5     3     6    1
     6     3     7    1
     7     3     8    1
     8     4    11    1
     9     4    12    1
    10     4    20    1
    11     5     6    1
    12     5     9    1
    13     5    10    1
    14     5    21    1
    15     6    22    1
    16     6    23    1
    17     7    13    1
    18     7    14    1
    19     7    24    1
    20     8    10    1
    21     8    25    1
    22     8    26    1
    23     9    12    1
    24     9    15    1
    25     9    16    1
    26    10    27    1
    27    10    28    1
    28    11    13    1
    29    11    29    1
    30    11    30    1
    31    12    17    2
    32    13    31    1
    33    13    32    1
    34    14    33    1
    35    14    34    1
    36    15    35    1
    37    15    36    1
    38    15    37    1
    39    16    38    1
    40    16    39    1
    41    16    40    1
    42    17    41    1
    43    17    42    1
    44    18    19    1
    45    19    43    1
    46    19    44    1
    47    19    45    1
