@<TRIPOS>MOLECULE
IMPHY001567
 41 45 0 0 0
SMALL
GASTEIGER

@<TRIPOS>ATOM
      1 O           7.1256    1.3396    0.0000 O.3     1  UNL1       -0.4541
      2 O           4.5545   -2.2921    0.0000 O.co2   1  UNL1       -0.7750
      3 O           8.8958    0.3427    0.0000 O.3     1  UNL1       -0.3841
      4 O           2.6079    0.0014    0.0000 O.3     1  UNL1       -0.4526
      5 O           6.2596    2.8396    0.0000 O.2     1  UNL1       -0.2449
      6 O           2.6079    1.6778    0.0000 O.3     1  UNL1       -0.4526
      7 N           5.4705   -1.8908    0.0000 N.3     1  UNL1        0.2209
      8 C           6.2435   -1.2019    0.0000 C.3     1  UNL1        0.0107
      9 C           6.2596   -0.1604    0.0000 C.3     1  UNL1        0.0716
     10 C           7.1415   -1.7296    0.0000 C.2     1  UNL1       -0.0179
     11 C           7.1256    0.3396    0.0000 C.3     1  UNL1        0.1449
     12 C           5.8851   -2.8396    0.0000 C.3     1  UNL1       -0.0284
     13 C           6.9158   -2.7402    0.0000 C.3     1  UNL1        0.0139
     14 C           8.0356   -0.1672    0.0000 C.3     1  UNL1        0.1114
     15 C           5.3935    0.3396    0.0000 C.ar    1  UNL1       -0.0174
     16 C           8.0436   -1.2088    0.0000 C.2     1  UNL1       -0.0476
     17 C           4.8058   -1.1437    0.0000 C.3     1  UNL1       -0.0433
     18 C           5.3935    1.3396    0.0000 C.ar    1  UNL1        0.0664
     19 C           4.4996   -0.1950    0.0000 C.ar    1  UNL1       -0.0116
     20 C           6.2596    1.8396    0.0000 C.2     1  UNL1        0.3400
     21 C           4.4996    1.8743    0.0000 C.ar    1  UNL1       -0.0019
     22 C           3.5935    0.3188    0.0000 C.ar    1  UNL1        0.1665
     23 C           3.5935    1.3604    0.0000 C.ar    1  UNL1        0.1670
     24 C           2.0000    0.8396    0.0000 C.3     1  UNL1        0.2332
     25 H           5.4706   -0.8482    0.0000 H       1  UNL1        0.0907
     26 H           5.5202   -0.5797    0.0000 H       1  UNL1        0.0445
     27 H           7.8584    0.7703    0.0000 H       1  UNL1        0.0772
     28 H           5.2941   -3.0268    0.0000 H       1  UNL1        0.0817
     29 H           6.0092   -3.4471    0.0000 H       1  UNL1        0.0817
     30 H           6.9101   -3.3602    0.0000 H       1  UNL1        0.0364
     31 H           7.5318   -2.8110    0.0000 H       1  UNL1        0.0364
     32 H           8.5755   -0.4720    0.0000 H       1  UNL1        0.0675
     33 H           8.5817   -1.5168    0.0000 H       1  UNL1        0.0600
     34 H           5.2690   -0.7316    0.0000 H       1  UNL1        0.0777
     35 H           4.3937   -0.6805    0.0000 H       1  UNL1        0.0777
     36 H           4.3426   -1.5558    0.0000 H       1  UNL1        0.0777
     37 H           4.5068   -0.8150    0.0000 H       1  UNL1        0.0658
     38 H           9.4362    0.0390    0.0000 H       1  UNL1        0.2104
     39 H           4.5068    2.4942    0.0000 H       1  UNL1        0.0663
     40 H           1.5391    1.2543    0.0000 H       1  UNL1        0.1166
     41 H           1.5391    0.4249    0.0000 H       1  UNL1        0.1166
@<TRIPOS>UNITY_ATOM_ATTR
2 1
charge -1
7 1
charge 1
@<TRIPOS>BOND
     1     1    11    1
     2     1    20    1
     3     2     7    1
     4    14     3    1
     5     3    38    1
     6     4    22    1
     7     4    24    1
     8     5    20    2
     9     6    23    1
    10     6    24    1
    11     7     8    1
    12     7    12    1
    13     7    17    1
    14     8     9    1
    15     8    10    1
    16     8    25    1
    17     9    11    1
    18     9    15    1
    19     9    26    1
    20    10    13    1
    21    10    16    2
    22    11    14    1
    23    11    27    1
    24    12    13    1
    25    12    28    1
    26    12    29    1
    27    13    30    1
    28    13    31    1
    29    14    16    1
    30    14    32    1
    31    15    18   ar
    32    15    19   ar
    33    16    33    1
    34    17    34    1
    35    17    35    1
    36    17    36    1
    37    18    20    1
    38    18    21   ar
    39    19    22   ar
    40    19    37    1
    41    21    23   ar
    42    21    39    1
    43    22    23   ar
    44    24    40    1
    45    24    41    1
