@<TRIPOS>MOLECULE
IMPHY012314
 81 85 0 0 0
SMALL
GASTEIGER

@<TRIPOS>ATOM
      1 O          10.9848    2.5364    0.0000 O.3     1  UNL1       -0.3912
      2 C           5.6449   -0.6080    0.0000 C.3     1  UNL1       -0.0194
      3 C           6.5109   -1.1080    0.0000 C.3     1  UNL1       -0.0051
      4 C           4.7349   -1.1148    0.0000 C.3     1  UNL1       -0.0266
      5 C           4.7269   -2.1564    0.0000 C.3     1  UNL1       -0.0284
      6 C           7.3770    0.3920    0.0000 C.3     1  UNL1       -0.0137
      7 C           8.2709    0.9267    0.0000 C.3     1  UNL1       -0.0218
      8 C           7.3770   -0.6080    0.0000 C.2     1  UNL1       -0.0634
      9 C           5.6449    0.3920    0.0000 C.3     1  UNL1       -0.0460
     10 C           6.5270   -2.1495    0.0000 C.3     1  UNL1       -0.0429
     11 C           3.8081   -0.5507    0.0000 C.3     1  UNL1       -0.0374
     12 C           5.6290   -2.6772    0.0000 C.3     1  UNL1       -0.0465
     13 C           6.5109    0.8920    0.0000 C.3     1  UNL1       -0.0455
     14 C           9.1770    0.4128    0.0000 C.3     1  UNL1       -0.0242
     15 C           3.7914   -2.7062    0.0000 C.3     1  UNL1       -0.0471
     16 C           4.7789   -0.1080    0.0000 C.3     1  UNL1       -0.0585
     17 C           2.8602   -1.0787    0.0000 C.3     1  UNL1       -0.0410
     18 C          10.1208    0.9481    0.0000 C.3     1  UNL1       -0.0053
     19 C           7.3770   -1.6080    0.0000 C.3     1  UNL1       -0.0553
     20 C           8.2458    2.0114    0.0000 C.3     1  UNL1       -0.0444
     21 C           9.1770   -0.6288    0.0000 C.3     1  UNL1       -0.0306
     22 C           2.8518   -2.1636    0.0000 C.3     1  UNL1       -0.0497
     23 C           8.2709   -1.1426    0.0000 C.2     1  UNL1       -0.0836
     24 C           4.7192   -3.1564    0.0000 C.3     1  UNL1       -0.0593
     25 C           7.4010    1.4200    0.0000 C.3     1  UNL1       -0.0587
     26 C          10.1208    2.0331    0.0000 C.3     1  UNL1        0.0606
     27 C           9.1770    2.5683    0.0000 C.3     1  UNL1       -0.0258
     28 C           3.8273    0.4491    0.0000 C.3     1  UNL1       -0.0619
     29 C           2.0000   -0.5687    0.0000 C.3     1  UNL1       -0.0622
     30 C          11.1207    0.9442    0.0000 C.3     1  UNL1       -0.0572
     31 C          10.6174    0.0801    0.0000 C.3     1  UNL1       -0.0572
     32 H           5.4661   -1.5483    0.0000 H       1  UNL1        0.0314
     33 H           8.1163   -0.0273    0.0000 H       1  UNL1        0.0351
     34 H           5.4329    0.9746    0.0000 H       1  UNL1        0.0271
     35 H           5.0343    0.2844    0.0000 H       1  UNL1        0.0271
     36 H           6.7450   -2.7299    0.0000 H       1  UNL1        0.0274
     37 H           7.1361   -2.0340    0.0000 H       1  UNL1        0.0274
     38 H           4.3515   -0.2522    0.0000 H       1  UNL1        0.0304
     39 H           5.2316   -3.1532    0.0000 H       1  UNL1        0.0271
     40 H           6.0299   -3.1501    0.0000 H       1  UNL1        0.0271
     41 H           6.9095    1.3670    0.0000 H       1  UNL1        0.0271
     42 H           6.1124    1.3670    0.0000 H       1  UNL1        0.0271
     43 H           9.9114   -0.0150    0.0000 H       1  UNL1        0.0315
     44 H           3.3942   -3.1821    0.0000 H       1  UNL1        0.0271
     45 H           4.1924   -3.1790    0.0000 H       1  UNL1        0.0271
     46 H           5.0889    0.4290    0.0000 H       1  UNL1        0.0235
     47 H           4.2420    0.2020    0.0000 H       1  UNL1        0.0235
     48 H           4.4689   -0.6449    0.0000 H       1  UNL1        0.0235
     49 H           2.3203   -1.3835    0.0000 H       1  UNL1        0.0301
     50 H           7.0670   -2.1449    0.0000 H       1  UNL1        0.0238
     51 H           7.9139   -1.9180    0.0000 H       1  UNL1        0.0238
     52 H           7.6870   -1.0710    0.0000 H       1  UNL1        0.0238
     53 H           8.0233    2.5901    0.0000 H       1  UNL1        0.0272
     54 H           7.6376    1.8912    0.0000 H       1  UNL1        0.0272
     55 H           9.3860   -1.2125    0.0000 H       1  UNL1        0.0310
     56 H           9.7878   -0.5227    0.0000 H       1  UNL1        0.0310
     57 H           2.2418   -2.0529    0.0000 H       1  UNL1        0.0268
     58 H           2.6383   -2.7457    0.0000 H       1  UNL1        0.0268
     59 H           8.2637   -1.7626    0.0000 H       1  UNL1        0.0572
     60 H           4.0992   -3.1516    0.0000 H       1  UNL1        0.0235
     61 H           4.7144   -3.7764    0.0000 H       1  UNL1        0.0235
     62 H           5.3392   -3.1612    0.0000 H       1  UNL1        0.0235
     63 H           7.7069    1.9593    0.0000 H       1  UNL1        0.0235
     64 H           6.8617    1.7258    0.0000 H       1  UNL1        0.0235
     65 H           7.0952    0.8807    0.0000 H       1  UNL1        0.0235
     66 H          10.6583    1.7241    0.0000 H       1  UNL1        0.0599
     67 H           9.5706    3.0473    0.0000 H       1  UNL1        0.0290
     68 H           8.7724    3.0381    0.0000 H       1  UNL1        0.0290
     69 H           4.4472    0.4371    0.0000 H       1  UNL1        0.0233
     70 H           3.8393    1.0690    0.0000 H       1  UNL1        0.0233
     71 H           3.2075    0.4610    0.0000 H       1  UNL1        0.0233
     72 H           2.3162   -0.0354    0.0000 H       1  UNL1        0.0233
     73 H           1.4667   -0.2525    0.0000 H       1  UNL1        0.0233
     74 H           1.6838   -1.1020    0.0000 H       1  UNL1        0.0233
     75 H          11.1184    0.3242    0.0000 H       1  UNL1        0.0236
     76 H          11.7407    0.9418    0.0000 H       1  UNL1        0.0236
     77 H          11.1231    1.5642    0.0000 H       1  UNL1        0.0236
     78 H          10.0793   -0.2278    0.0000 H       1  UNL1        0.0236
     79 H          10.9253   -0.4580    0.0000 H       1  UNL1        0.0236
     80 H          11.1555    0.3881    0.0000 H       1  UNL1        0.0236
     81 H          10.9825    3.1564    0.0000 H       1  UNL1        0.2098
@<TRIPOS>BOND
     1    26     1    1
     2     1    81    1
     3     2     3    1
     4     2     4    1
     5     2     9    1
     6     2    16    1
     7     3     8    1
     8     3    10    1
     9     3    19    1
    10     4     5    1
    11     4    11    1
    12     4    32    1
    13     5    12    1
    14     5    15    1
    15     5    24    1
    16     6     7    1
    17     6     8    1
    18     6    13    1
    19     6    33    1
    20     7    14    1
    21     7    20    1
    22     7    25    1
    23     8    23    2
    24     9    13    1
    25     9    34    1
    26     9    35    1
    27    10    12    1
    28    10    36    1
    29    10    37    1
    30    11    17    1
    31    11    28    1
    32    11    38    1
    33    12    39    1
    34    12    40    1
    35    13    41    1
    36    13    42    1
    37    14    18    1
    38    14    21    1
    39    14    43    1
    40    15    22    1
    41    15    44    1
    42    15    45    1
    43    16    46    1
    44    16    47    1
    45    16    48    1
    46    17    22    1
    47    17    29    1
    48    17    49    1
    49    18    26    1
    50    18    30    1
    51    18    31    1
    52    19    50    1
    53    19    51    1
    54    19    52    1
    55    20    27    1
    56    20    53    1
    57    20    54    1
    58    21    23    1
    59    21    55    1
    60    21    56    1
    61    22    57    1
    62    22    58    1
    63    23    59    1
    64    24    60    1
    65    24    61    1
    66    24    62    1
    67    25    63    1
    68    25    64    1
    69    25    65    1
    70    26    27    1
    71    26    66    1
    72    27    67    1
    73    27    68    1
    74    28    69    1
    75    28    70    1
    76    28    71    1
    77    29    72    1
    78    29    73    1
    79    29    74    1
    80    30    75    1
    81    30    76    1
    82    30    77    1
    83    31    78    1
    84    31    79    1
    85    31    80    1
