@<TRIPOS>MOLECULE
IMPHY010859
 60 63 0 0 0
SMALL
GASTEIGER

@<TRIPOS>ATOM
      1 O           4.6300   -3.0671    0.0000 O.3     1  UNL1       -0.4601
      2 O           4.3844    2.5307    0.0000 O.3     1  UNL1       -0.4592
      3 O           6.7993    0.6192    0.0000 O.2     1  UNL1       -0.2753
      4 O           2.2427   -1.0393    0.0000 O.2     1  UNL1       -0.2969
      5 O           3.3321   -4.2800    0.0000 O.2     1  UNL1       -0.2505
      6 O           4.0444    4.2800    0.0000 O.2     1  UNL1       -0.2505
      7 N           5.1672    0.7619    0.0000 N.am    1  UNL1       -0.2943
      8 C           5.6069   -1.7317    0.0000 C.3     1  UNL1        0.0077
      9 C           4.6672   -2.0737    0.0000 C.3     1  UNL1        0.1168
     10 C           6.1069   -0.8657    0.0000 C.3     1  UNL1        0.0419
     11 C           3.7275   -1.7317    0.0000 C.3     1  UNL1        0.0674
     12 C           4.1672    0.7619    0.0000 C.3     1  UNL1        0.0696
     13 C           3.1176   -2.5166    0.0000 C.3     1  UNL1        0.0665
     14 C           7.0253   -0.5360    0.0000 C.3     1  UNL1       -0.0415
     15 C           3.4012    0.1192    0.0000 C.3     1  UNL1        0.0283
     16 C           5.9333    0.1192    0.0000 C.2     1  UNL1        0.2194
     17 C           3.8252    1.7016    0.0000 C.3     1  UNL1        0.1226
     18 C           3.2275   -0.8657    0.0000 C.2     1  UNL1        0.1426
     19 C           6.2497   -2.4977    0.0000 C.3     1  UNL1       -0.0490
     20 C           5.9119    1.3925    0.0000 C.3     1  UNL1        0.0151
     21 C           7.3611    0.3802    0.0000 C.3     1  UNL1       -0.0509
     22 C           6.8732    1.2252    0.0000 C.3     1  UNL1       -0.0371
     23 C           3.6741   -3.3402    0.0000 C.2     1  UNL1        0.3110
     24 C           2.8639    1.9773    0.0000 C.3     1  UNL1       -0.0012
     25 C           2.8290    2.9767    0.0000 C.3     1  UNL1        0.0570
     26 C           2.1181   -2.4834    0.0000 C.3     1  UNL1       -0.0515
     27 C           7.2345   -2.3241    0.0000 C.3     1  UNL1       -0.0649
     28 C           3.7687    3.3187    0.0000 C.2     1  UNL1        0.3104
     29 C           2.0000    3.5359    0.0000 C.3     1  UNL1       -0.0522
     30 H           5.4464   -2.3306    0.0000 H       1  UNL1        0.0344
     31 H           5.4660   -2.3644    0.0000 H       1  UNL1        0.0744
     32 H           6.2545   -1.7027    0.0000 H       1  UNL1        0.0398
     33 H           2.9288   -1.4410    0.0000 H       1  UNL1        0.0422
     34 H           3.3462    0.9819    0.0000 H       1  UNL1        0.0541
     35 H           2.8543   -1.9553    0.0000 H       1  UNL1        0.0419
     36 H           7.0950   -1.1521    0.0000 H       1  UNL1        0.0273
     37 H           7.6409   -0.6098    0.0000 H       1  UNL1        0.0273
     38 H           3.1556    0.6885    0.0000 H       1  UNL1        0.0361
     39 H           2.7854    0.0472    0.0000 H       1  UNL1        0.0361
     40 H           4.6689    1.5980    0.0000 H       1  UNL1        0.0753
     41 H           5.7128   -2.8077    0.0000 H       1  UNL1        0.0267
     42 H           6.4618   -3.0803    0.0000 H       1  UNL1        0.0267
     43 H           6.1558    1.9625    0.0000 H       1  UNL1        0.0465
     44 H           5.4132    1.7609    0.0000 H       1  UNL1        0.0465
     45 H           7.8786    0.0387    0.0000 H       1  UNL1        0.0266
     46 H           7.8124    0.8053    0.0000 H       1  UNL1        0.0266
     47 H           7.4671    1.4035    0.0000 H       1  UNL1        0.0280
     48 H           6.8363    1.8441    0.0000 H       1  UNL1        0.0280
     49 H           2.2454    2.0205    0.0000 H       1  UNL1        0.0309
     50 H           2.7563    1.3667    0.0000 H       1  UNL1        0.0309
     51 H           2.9046    3.5920    0.0000 H       1  UNL1        0.0412
     52 H           2.1387   -1.8638    0.0000 H       1  UNL1        0.0238
     53 H           1.4984   -2.4629    0.0000 H       1  UNL1        0.0238
     54 H           2.0975   -3.1031    0.0000 H       1  UNL1        0.0238
     55 H           7.3422   -2.9346    0.0000 H       1  UNL1        0.0230
     56 H           7.8451   -2.2164    0.0000 H       1  UNL1        0.0230
     57 H           7.1268   -1.7135    0.0000 H       1  UNL1        0.0230
     58 H           2.3467    4.0499    0.0000 H       1  UNL1        0.0238
     59 H           1.4860    3.8826    0.0000 H       1  UNL1        0.0238
     60 H           1.6533    3.0219    0.0000 H       1  UNL1        0.0238
@<TRIPOS>BOND
     1     1     9    1
     2     1    23    1
     3     2    17    1
     4     2    28    1
     5     3    16    2
     6     4    18    2
     7     5    23    2
     8     6    28    2
     9     7    12    1
    10     7    16   am
    11     7    20    1
    12     8     9    1
    13     8    10    1
    14     8    19    1
    15     8    30    1
    16     9    11    1
    17     9    31    1
    18    10    14    1
    19    10    16    1
    20    10    32    1
    21    11    13    1
    22    11    18    1
    23    11    33    1
    24    12    15    1
    25    12    17    1
    26    12    34    1
    27    13    23    1
    28    13    26    1
    29    13    35    1
    30    14    21    1
    31    14    36    1
    32    14    37    1
    33    15    18    1
    34    15    38    1
    35    15    39    1
    36    17    24    1
    37    17    40    1
    38    19    27    1
    39    19    41    1
    40    19    42    1
    41    20    22    1
    42    20    43    1
    43    20    44    1
    44    21    22    1
    45    21    45    1
    46    21    46    1
    47    22    47    1
    48    22    48    1
    49    24    25    1
    50    24    49    1
    51    24    50    1
    52    25    28    1
    53    25    29    1
    54    25    51    1
    55    26    52    1
    56    26    53    1
    57    26    54    1
    58    27    55    1
    59    27    56    1
    60    27    57    1
    61    29    58    1
    62    29    59    1
    63    29    60    1
