@<TRIPOS>MOLECULE
IMPHY013209
 29 28 0 0 0
SMALL
GASTEIGER

@<TRIPOS>ATOM
      1 O           5.4641   -1.2500    0.0000 O.3     1  UNL1       -0.3741
      2 O           6.3301    1.2500    0.0000 O.3     1  UNL1       -0.3699
      3 O           4.5981    1.2500    0.0000 O.3     1  UNL1       -0.3868
      4 O           2.8660    0.2500    0.0000 O.3     1  UNL1       -0.3803
      5 O           8.0622    0.2500    0.0000 O.2     1  UNL1       -0.2982
      6 C           5.4641   -0.2500    0.0000 C.3     1  UNL1        0.1188
      7 C           4.5981    0.2500    0.0000 C.3     1  UNL1        0.1073
      8 C           6.3301    0.2500    0.0000 C.3     1  UNL1        0.1414
      9 C           3.7320   -0.2500    0.0000 C.3     1  UNL1        0.0758
     10 C           7.1962   -0.2500    0.0000 C.2     1  UNL1        0.1515
     11 C           4.5981   -1.7500    0.0000 C.3     1  UNL1        0.0370
     12 C           7.1962    1.7500    0.0000 C.3     1  UNL1        0.0375
     13 C           2.0000   -0.2500    0.0000 C.3     1  UNL1        0.0366
     14 H           6.0010   -0.5600    0.0000 H       1  UNL1        0.0653
     15 H           5.1350    0.5600    0.0000 H       1  UNL1        0.0643
     16 H           6.8671    0.5600    0.0000 H       1  UNL1        0.0700
     17 H           3.3335   -0.7249    0.0000 H       1  UNL1        0.0586
     18 H           4.1306   -0.7249    0.0000 H       1  UNL1        0.0586
     19 H           7.1962   -0.8700    0.0000 H       1  UNL1        0.1055
     20 H           4.0611    1.5600    0.0000 H       1  UNL1        0.2100
     21 H           4.2881   -1.2131    0.0000 H       1  UNL1        0.0524
     22 H           4.0611   -2.0600    0.0000 H       1  UNL1        0.0524
     23 H           4.9081   -2.2869    0.0000 H       1  UNL1        0.0524
     24 H           7.5062    1.2131    0.0000 H       1  UNL1        0.0524
     25 H           7.7331    2.0600    0.0000 H       1  UNL1        0.0524
     26 H           6.8862    2.2869    0.0000 H       1  UNL1        0.0524
     27 H           1.6900    0.2869    0.0000 H       1  UNL1        0.0524
     28 H           1.4631   -0.5600    0.0000 H       1  UNL1        0.0524
     29 H           2.3100   -0.7869    0.0000 H       1  UNL1        0.0524
@<TRIPOS>BOND
     1     6     1    1
     2     1    11    1
     3     8     2    1
     4     2    12    1
     5     7     3    1
     6     3    20    1
     7     4     9    1
     8     4    13    1
     9     5    10    2
    10     6     7    1
    11     6     8    1
    12     6    14    1
    13     7     9    1
    14     7    15    1
    15     8    10    1
    16     8    16    1
    17     9    17    1
    18     9    18    1
    19    10    19    1
    20    11    21    1
    21    11    22    1
    22    11    23    1
    23    12    24    1
    24    12    25    1
    25    12    26    1
    26    13    27    1
    27    13    28    1
    28    13    29    1
