@<TRIPOS>MOLECULE
IMPHY006892
 39 40 0 0 0
SMALL
GASTEIGER

@<TRIPOS>ATOM
      1 O           8.1240    1.9102    0.0000 O.2     1  UNL1       -0.2914
      2 O           9.1014   -1.4273    0.0000 O.3     1  UNL1       -0.3940
      3 O           6.0010   -1.8450    0.0000 O.3     1  UNL1       -0.5062
      4 O           2.5369    1.1550    0.0000 O.3     1  UNL1       -0.3947
      5 C           8.3969    0.1550    0.0000 C.3     1  UNL1        0.0579
      6 C           7.8133   -0.6497    0.0000 C.3     1  UNL1       -0.0090
      7 C           6.8671   -0.3450    0.0000 C.ar    1  UNL1        0.0060
      8 C           6.8671    0.6550    0.0000 C.ar    1  UNL1        0.0279
      9 C           7.8133    0.9597    0.0000 C.2     1  UNL1        0.1721
     10 C           9.2059   -0.4328    0.0000 C.3     1  UNL1        0.0569
     11 C           9.2059    0.7428    0.0000 C.3     1  UNL1       -0.0501
     12 C           6.0010    1.1550    0.0000 C.ar    1  UNL1       -0.0360
     13 C           6.0010   -0.8450    0.0000 C.ar    1  UNL1        0.1239
     14 C           5.1350    0.6550    0.0000 C.ar    1  UNL1       -0.0353
     15 C           5.1350   -0.3450    0.0000 C.ar    1  UNL1       -0.0052
     16 C           4.2690    1.1550    0.0000 C.3     1  UNL1       -0.0038
     17 C           6.0010    2.1550    0.0000 C.3     1  UNL1       -0.0388
     18 C           4.2690   -0.8450    0.0000 C.3     1  UNL1       -0.0360
     19 C           3.4030    0.6550    0.0000 C.3     1  UNL1        0.0482
     20 H           7.5622   -1.2166    0.0000 H       1  UNL1        0.0325
     21 H           8.3507   -0.9590    0.0000 H       1  UNL1        0.0325
     22 H           9.8019   -0.6037    0.0000 H       1  UNL1        0.0567
     23 H           9.4777    0.1245    0.0000 H       1  UNL1        0.0567
     24 H           9.5703    0.2412    0.0000 H       1  UNL1        0.0240
     25 H           9.7075    1.1072    0.0000 H       1  UNL1        0.0240
     26 H           8.8415    1.2444    0.0000 H       1  UNL1        0.0240
     27 H           4.6675    1.6300    0.0000 H       1  UNL1        0.0336
     28 H           3.8705    1.6300    0.0000 H       1  UNL1        0.0336
     29 H           6.6210    2.1550    0.0000 H       1  UNL1        0.0278
     30 H           6.0010    2.7750    0.0000 H       1  UNL1        0.0278
     31 H           5.3810    2.1550    0.0000 H       1  UNL1        0.0278
     32 H           3.9590   -0.3081    0.0000 H       1  UNL1        0.0279
     33 H           3.7320   -1.1550    0.0000 H       1  UNL1        0.0279
     34 H           4.5790   -1.3819    0.0000 H       1  UNL1        0.0279
     35 H           9.6030   -1.7917    0.0000 H       1  UNL1        0.2094
     36 H           3.0044    0.1801    0.0000 H       1  UNL1        0.0560
     37 H           3.8015    0.1801    0.0000 H       1  UNL1        0.0560
     38 H           5.4641   -2.1550    0.0000 H       1  UNL1        0.2922
     39 H           2.0000    0.8450    0.0000 H       1  UNL1        0.2094
@<TRIPOS>BOND
     1     1     9    2
     2     2    10    1
     3     2    35    1
     4     3    13    1
     5     3    38    1
     6     4    19    1
     7     4    39    1
     8     5     6    1
     9     5     9    1
    10     5    10    1
    11     5    11    1
    12     6     7    1
    13     6    20    1
    14     6    21    1
    15     7     8   ar
    16     7    13   ar
    17     8     9    1
    18     8    12   ar
    19    10    22    1
    20    10    23    1
    21    11    24    1
    22    11    25    1
    23    11    26    1
    24    12    14   ar
    25    12    17    1
    26    13    15   ar
    27    14    15   ar
    28    14    16    1
    29    15    18    1
    30    16    19    1
    31    16    27    1
    32    16    28    1
    33    17    29    1
    34    17    30    1
    35    17    31    1
    36    18    32    1
    37    18    33    1
    38    18    34    1
    39    19    36    1
    40    19    37    1
