@<TRIPOS>MOLECULE
IMPHY015305
 30 30 0 0 0
SMALL
GASTEIGER

@<TRIPOS>ATOM
      1 O           4.5981    2.6550    0.0000 O.3     1  UNL1       -0.4914
      2 O           2.8660    1.6550    0.0000 O.3     1  UNL1       -0.4915
      3 O           7.1962   -2.8450    0.0000 O.3     1  UNL1       -0.3950
      4 C           6.3301   -0.3450    0.0000 C.3     1  UNL1       -0.0255
      5 C           5.4641    0.1550    0.0000 C.ar    1  UNL1       -0.0436
      6 C           6.3301   -1.3450    0.0000 C.3     1  UNL1       -0.0257
      7 C           5.4641    1.1550    0.0000 C.ar    1  UNL1       -0.0131
      8 C           4.5981   -0.3450    0.0000 C.ar    1  UNL1       -0.0549
      9 C           7.1962   -1.8450    0.0000 C.3     1  UNL1        0.0445
     10 C           4.5981    1.6550    0.0000 C.ar    1  UNL1        0.1617
     11 C           3.7320    1.1550    0.0000 C.ar    1  UNL1        0.1615
     12 C           3.7320    0.1550    0.0000 C.ar    1  UNL1       -0.0160
     13 C           5.4641    3.1550    0.0000 C.3     1  UNL1        0.0790
     14 C           2.0000    1.1550    0.0000 C.3     1  UNL1        0.0790
     15 H           6.9407   -0.4527    0.0000 H       1  UNL1        0.0314
     16 H           6.5422    0.2376    0.0000 H       1  UNL1        0.0314
     17 H           5.7196   -1.2373    0.0000 H       1  UNL1        0.0290
     18 H           6.1181   -1.9276    0.0000 H       1  UNL1        0.0290
     19 H           6.0010    1.4650    0.0000 H       1  UNL1        0.0658
     20 H           4.5981   -0.9650    0.0000 H       1  UNL1        0.0621
     21 H           7.8067   -1.9527    0.0000 H       1  UNL1        0.0557
     22 H           7.4082   -1.2624    0.0000 H       1  UNL1        0.0557
     23 H           3.1951   -0.1550    0.0000 H       1  UNL1        0.0655
     24 H           7.7331   -3.1550    0.0000 H       1  UNL1        0.2094
     25 H           5.7741    2.6181    0.0000 H       1  UNL1        0.0660
     26 H           6.0010    3.4650    0.0000 H       1  UNL1        0.0660
     27 H           5.1541    3.6919    0.0000 H       1  UNL1        0.0660
     28 H           1.6900    1.6919    0.0000 H       1  UNL1        0.0660
     29 H           1.4631    0.8450    0.0000 H       1  UNL1        0.0660
     30 H           2.3100    0.6181    0.0000 H       1  UNL1        0.0660
@<TRIPOS>BOND
     1     1    10    1
     2     1    13    1
     3     2    11    1
     4     2    14    1
     5     3     9    1
     6     3    24    1
     7     4     5    1
     8     4     6    1
     9     4    15    1
    10     4    16    1
    11     5     7   ar
    12     5     8   ar
    13     6     9    1
    14     6    17    1
    15     6    18    1
    16     7    10   ar
    17     7    19    1
    18     8    12   ar
    19     8    20    1
    20     9    21    1
    21     9    22    1
    22    10    11   ar
    23    11    12   ar
    24    12    23    1
    25    13    25    1
    26    13    26    1
    27    13    27    1
    28    14    28    1
    29    14    29    1
    30    14    30    1
