@<TRIPOS>MOLECULE
IMPHY008703
 40 44 0 0 0
SMALL
GASTEIGER

@<TRIPOS>ATOM
      1 O           3.7670    1.2248    0.0000 O.3     1  UNL1       -0.3757
      2 O           8.8411   -0.1116    0.0000 O.2     1  UNL1       -0.2706
      3 O           2.6079   -0.2343    0.0000 O.3     1  UNL1       -0.4526
      4 O           2.6079   -1.9107    0.0000 O.3     1  UNL1       -0.4526
      5 N           7.1256   -0.5725    0.0000 N.am    1  UNL1       -0.2838
      6 C           6.2596   -0.0725    0.0000 C.3     1  UNL1        0.0911
      7 C           5.2440    0.1298    0.0000 C.3     1  UNL1        0.0070
      8 C           5.3935   -0.5725    0.0000 C.ar    1  UNL1       -0.0125
      9 C           6.4688    0.8993    0.0000 C.2     1  UNL1       -0.0147
     10 C           7.1256   -1.5725    0.0000 C.3     1  UNL1        0.0201
     11 C           5.3935   -1.5725    0.0000 C.ar    1  UNL1       -0.0367
     12 C           4.7664    1.1912    0.0000 C.3     1  UNL1        0.0793
     13 C           6.2596   -2.0725    0.0000 C.3     1  UNL1       -0.0113
     14 C           7.8626    0.0946    0.0000 C.2     1  UNL1        0.2407
     15 C           7.4575    1.0024    0.0000 C.2     1  UNL1        0.0059
     16 C           6.1666    1.8897    0.0000 C.2     1  UNL1       -0.0576
     17 C           4.4996   -0.0378    0.0000 C.ar    1  UNL1       -0.0103
     18 C           5.3086    2.0371    0.0000 C.2     1  UNL1       -0.0552
     19 C           4.4996   -2.1072    0.0000 C.ar    1  UNL1       -0.0126
     20 C           3.5935   -0.5517    0.0000 C.ar    1  UNL1        0.1666
     21 C           3.5935   -1.5933    0.0000 C.ar    1  UNL1        0.1665
     22 C           2.0000   -1.0725    0.0000 C.3     1  UNL1        0.2332
     23 C           3.2964    2.1072    0.0000 C.3     1  UNL1        0.0372
     24 H           4.6385   -0.0033    0.0000 H       1  UNL1        0.0321
     25 H           5.2502   -0.4902    0.0000 H       1  UNL1        0.0321
     26 H           7.3376   -2.1551    0.0000 H       1  UNL1        0.0468
     27 H           7.7362   -1.4648    0.0000 H       1  UNL1        0.0468
     28 H           4.4781    1.7401    0.0000 H       1  UNL1        0.0641
     29 H           5.8610   -2.5475    0.0000 H       1  UNL1        0.0328
     30 H           6.6581   -2.5475    0.0000 H       1  UNL1        0.0328
     31 H           7.7675    1.5393    0.0000 H       1  UNL1        0.0673
     32 H           6.5765    2.3548    0.0000 H       1  UNL1        0.0619
     33 H           4.5068    0.5821    0.0000 H       1  UNL1        0.0659
     34 H           5.0585    2.6044    0.0000 H       1  UNL1        0.0598
     35 H           4.5068   -2.7271    0.0000 H       1  UNL1        0.0658
     36 H           1.5391   -0.6578    0.0000 H       1  UNL1        0.1166
     37 H           1.5391   -1.4872    0.0000 H       1  UNL1        0.1166
     38 H           3.8434    2.3989    0.0000 H       1  UNL1        0.0524
     39 H           3.0046    2.6542    0.0000 H       1  UNL1        0.0524
     40 H           2.7493    1.8154    0.0000 H       1  UNL1        0.0524
@<TRIPOS>BOND
     1    12     1    1
     2     1    23    1
     3     2    14    2
     4     3    20    1
     5     3    22    1
     6     4    21    1
     7     4    22    1
     8     5     6    1
     9     5    10    1
    10     5    14   am
    11     6     7    1
    12     6     8    1
    13     6     9    1
    14     7    12    1
    15     7    24    1
    16     7    25    1
    17     8    11   ar
    18     8    17   ar
    19     9    15    2
    20     9    16    1
    21    10    13    1
    22    10    26    1
    23    10    27    1
    24    11    13    1
    25    11    19   ar
    26    12    18    1
    27    12    28    1
    28    13    29    1
    29    13    30    1
    30    14    15    1
    31    15    31    1
    32    16    18    2
    33    16    32    1
    34    17    20   ar
    35    17    33    1
    36    18    34    1
    37    19    21   ar
    38    19    35    1
    39    20    21   ar
    40    22    36    1
    41    22    37    1
    42    23    38    1
    43    23    39    1
    44    23    40    1
