@<TRIPOS>MOLECULE
IMPHY011110
 63 66 0 0 0
SMALL
GASTEIGER

@<TRIPOS>ATOM
      1 O           8.8709    3.3441    0.0000 O.3     1  UNL1       -0.3757
      2 O           6.8671   -0.6394    0.0000 O.3     1  UNL1       -0.3449
      3 O           5.1350   -0.6394    0.0000 O.3     1  UNL1       -0.3405
      4 O           6.0599    3.9494    0.0000 O.2     1  UNL1       -0.3007
      5 O           6.8671   -2.6394    0.0000 O.3     1  UNL1       -0.3841
      6 O           5.1350   -3.6394    0.0000 O.3     1  UNL1       -0.3864
      7 O           3.4030   -2.6394    0.0000 O.3     1  UNL1       -0.3865
      8 O           2.5369   -1.1394    0.0000 O.3     1  UNL1       -0.3924
      9 C           7.7671    0.8849    0.0000 C.3     1  UNL1        0.0001
     10 C           7.7787    1.8848    0.0000 C.3     1  UNL1        0.0025
     11 C           8.6504    2.3748    0.0000 C.3     1  UNL1        0.0658
     12 C           9.5106    1.8648    0.0000 C.3     1  UNL1       -0.0097
     13 C           8.6273    0.3749    0.0000 C.3     1  UNL1       -0.0446
     14 C           6.8671    0.3606    0.0000 C.3     1  UNL1        0.0675
     15 C           6.8910    2.4298    0.0000 C.3     1  UNL1        0.0203
     16 C           9.4991    0.8649    0.0000 C.3     1  UNL1       -0.0470
     17 C          10.2553    2.5233    0.0000 C.3     1  UNL1       -0.0152
     18 C           5.9670    0.8849    0.0000 C.3     1  UNL1       -0.0253
     19 C           5.9790    1.9264    0.0000 C.3     1  UNL1       -0.0411
     20 C           7.7556   -0.1150    0.0000 C.3     1  UNL1       -0.0568
     21 C           9.8607    3.4357    0.0000 C.3     1  UNL1        0.0509
     22 C          11.2314    2.3058    0.0000 C.3     1  UNL1       -0.0600
     23 C           6.9141    3.4295    0.0000 C.2     1  UNL1        0.1237
     24 C           6.0010   -1.1394    0.0000 C.3     1  UNL1        0.1882
     25 C           6.0010   -2.1394    0.0000 C.3     1  UNL1        0.1341
     26 C           5.1350   -2.6394    0.0000 C.3     1  UNL1        0.1141
     27 C           4.2690   -1.1394    0.0000 C.3     1  UNL1        0.1130
     28 C           4.2690   -2.1394    0.0000 C.3     1  UNL1        0.1119
     29 C           3.4030   -0.6394    0.0000 C.3     1  UNL1        0.0730
     30 H           7.7951    2.7347    0.0000 H       1  UNL1        0.0339
     31 H           7.9693    2.8832    0.0000 H       1  UNL1        0.0602
     32 H          10.2836    1.5111    0.0000 H       1  UNL1        0.0329
     33 H           8.2233   -0.0954    0.0000 H       1  UNL1        0.0272
     34 H           9.0203   -0.1046    0.0000 H       1  UNL1        0.0272
     35 H           6.3295    0.0516    0.0000 H       1  UNL1        0.0602
     36 H           7.4355    2.7262    0.0000 H       1  UNL1        0.0378
     37 H           9.7044    0.2798    0.0000 H       1  UNL1        0.0269
     38 H          10.1108    0.9654    0.0000 H       1  UNL1        0.0269
     39 H          10.6504    3.0011    0.0000 H       1  UNL1        0.0324
     40 H           5.3574    0.9980    0.0000 H       1  UNL1        0.0290
     41 H           5.7512    0.3036    0.0000 H       1  UNL1        0.0290
     42 H           5.7768    2.5125    0.0000 H       1  UNL1        0.0273
     43 H           5.3670    1.8274    0.0000 H       1  UNL1        0.0273
     44 H           7.1356   -0.1079    0.0000 H       1  UNL1        0.0236
     45 H           7.7484   -0.7350    0.0000 H       1  UNL1        0.0236
     46 H           8.3755   -0.1222    0.0000 H       1  UNL1        0.0236
     47 H          10.4525    3.6206    0.0000 H       1  UNL1        0.0563
     48 H           9.7390    4.0437    0.0000 H       1  UNL1        0.0563
     49 H          11.0965    1.7006    0.0000 H       1  UNL1        0.0233
     50 H          11.8365    2.1709    0.0000 H       1  UNL1        0.0233
     51 H          11.3662    2.9109    0.0000 H       1  UNL1        0.0233
     52 H           7.4581    3.7270    0.0000 H       1  UNL1        0.1029
     53 H           6.5380   -1.4494    0.0000 H       1  UNL1        0.0937
     54 H           6.0010   -2.7594    0.0000 H       1  UNL1        0.0671
     55 H           4.5981   -2.9494    0.0000 H       1  UNL1        0.0648
     56 H           4.2690   -0.5194    0.0000 H       1  UNL1        0.0647
     57 H           3.7320   -1.8294    0.0000 H       1  UNL1        0.0647
     58 H           6.8671   -3.2594    0.0000 H       1  UNL1        0.2101
     59 H           3.8015   -0.1645    0.0000 H       1  UNL1        0.0584
     60 H           3.0044   -0.1645    0.0000 H       1  UNL1        0.0584
     61 H           4.5981   -3.9494    0.0000 H       1  UNL1        0.2100
     62 H           3.4030   -3.2594    0.0000 H       1  UNL1        0.2100
     63 H           2.0000   -0.8294    0.0000 H       1  UNL1        0.2095
@<TRIPOS>BOND
     1     1    11    1
     2     1    21    1
     3    14     2    1
     4    24     2    1
     5     3    24    1
     6     3    27    1
     7     4    23    2
     8    25     5    1
     9     5    58    1
    10    26     6    1
    11     6    61    1
    12    28     7    1
    13     7    62    1
    14     8    29    1
    15     8    63    1
    16     9    10    1
    17     9    13    1
    18     9    14    1
    19     9    20    1
    20    10    11    1
    21    10    15    1
    22    10    30    1
    23    11    12    1
    24    11    31    1
    25    12    16    1
    26    12    17    1
    27    12    32    1
    28    13    16    1
    29    13    33    1
    30    13    34    1
    31    14    18    1
    32    14    35    1
    33    15    19    1
    34    15    23    1
    35    15    36    1
    36    16    37    1
    37    16    38    1
    38    17    21    1
    39    17    22    1
    40    17    39    1
    41    18    19    1
    42    18    40    1
    43    18    41    1
    44    19    42    1
    45    19    43    1
    46    20    44    1
    47    20    45    1
    48    20    46    1
    49    21    47    1
    50    21    48    1
    51    22    49    1
    52    22    50    1
    53    22    51    1
    54    23    52    1
    55    24    25    1
    56    24    53    1
    57    25    26    1
    58    25    54    1
    59    26    28    1
    60    26    55    1
    61    27    28    1
    62    27    29    1
    63    27    56    1
    64    28    57    1
    65    29    59    1
    66    29    60    1
