@<TRIPOS>MOLECULE
IMPHY014629
 21 21 0 0 0
SMALL
GASTEIGER

@<TRIPOS>ATOM
      1 O           2.3644    1.2206    0.0000 O.3     1  UNL1       -0.3947
      2 O           6.9500   -0.0749    0.0000 O.3     1  UNL1       -0.4795
      3 OXT         6.4147   -1.7222    0.0000 O.2     1  UNL1       -0.2492
      4 N           4.4467   -1.0228    0.0000 N.3     1  UNL1       -0.3038
      5 C           3.9467    0.5161    0.0000 C.3     1  UNL1       -0.0034
      6 C           4.9467    0.5161    0.0000 C.3     1  UNL1       -0.0211
      7 CA          5.2558   -0.4350    0.0000 C.3     1  UNL1        0.1061
      8 C           3.6377   -0.4350    0.0000 C.3     1  UNL1        0.0016
      9 C           3.3590    1.3251    0.0000 C.3     1  UNL1        0.0482
     10 C           6.2068   -0.7440    0.0000 C.2     1  UNL1        0.3219
     11 H           3.3344    0.4191    0.0000 H       1  UNL1        0.0336
     12 H           5.5532    0.6450    0.0000 H       1  UNL1        0.0289
     13 H           4.8819    1.1327    0.0000 H       1  UNL1        0.0289
     14 HA          5.3527   -1.0474    0.0000 H       1  UNL1        0.0576
     15 H           3.0713   -0.1828    0.0000 H       1  UNL1        0.0428
     16 H           3.3277   -0.9719    0.0000 H       1  UNL1        0.0428
     17 H           4.4467   -1.6428    0.0000 H       1  UNL1        0.1227
     18 H           4.1229    1.6977    0.0000 H       1  UNL1        0.0560
     19 H           3.1880    1.9211    0.0000 H       1  UNL1        0.0560
     20 H           2.0000    1.7222    0.0000 H       1  UNL1        0.2094
     21 H           7.5396   -0.2665    0.0000 H       1  UNL1        0.2951
@<TRIPOS>BOND
     1     1     9    1
     2     1    20    1
     3     2    10    1
     4     2    21    1
     5     3    10    2
     6     4     7    1
     7     4     8    1
     8     4    17    1
     9     5     6    1
    10     5     8    1
    11     5     9    1
    12     5    11    1
    13     6     7    1
    14     6    12    1
    15     6    13    1
    16     7    10    1
    17     7    14    1
    18     8    15    1
    19     8    16    1
    20     9    18    1
    21     9    19    1
