@<TRIPOS>MOLECULE
IMPHY000443
 45 48 0 0 0
SMALL
GASTEIGER

@<TRIPOS>ATOM
      1 O           5.5103    1.5072    0.0000 O.3     1  UNL1       -0.5029
      2 O           7.2762    2.5450    0.0000 O.3     1  UNL1       -0.4914
      3 O           2.8680   -2.0484    0.0000 O.3     1  UNL1       -0.4914
      4 O           2.8680   -0.0001    0.0000 O.3     1  UNL1       -0.4914
      5 N           8.1223   -2.0212    0.0000 N.3     1  UNL1       -0.3087
      6 C           7.2641   -1.5242    0.0000 C.3     1  UNL1        0.0378
      7 C           7.2641   -0.5242    0.0000 C.ar    1  UNL1       -0.0155
      8 C           6.3981   -2.0242    0.0000 C.3     1  UNL1       -0.0074
      9 C           8.1741   -0.0174    0.0000 C.ar    1  UNL1       -0.0372
     10 C           6.3981   -0.0242    0.0000 C.ar    1  UNL1        0.0325
     11 C           9.0134   -0.5456    0.0000 C.3     1  UNL1       -0.0146
     12 C           5.5320   -1.5242    0.0000 C.ar    1  UNL1       -0.0341
     13 C           8.9878   -1.5370    0.0000 C.3     1  UNL1        0.0004
     14 C           5.5320   -0.5242    0.0000 C.ar    1  UNL1       -0.0070
     15 C           6.3820    1.0173    0.0000 C.ar    1  UNL1        0.1666
     16 C           8.1821    1.0242    0.0000 C.ar    1  UNL1       -0.0127
     17 C           7.2800    1.5450    0.0000 C.ar    1  UNL1        0.1622
     18 C           4.6381   -2.0589    0.0000 C.ar    1  UNL1       -0.0125
     19 C           4.6381    0.0104    0.0000 C.ar    1  UNL1       -0.0082
     20 C           3.7320   -1.5450    0.0000 C.ar    1  UNL1        0.1618
     21 C           3.7320   -0.5034    0.0000 C.ar    1  UNL1        0.1621
     22 C           8.1403    3.0484    0.0000 C.3     1  UNL1        0.0790
     23 C           2.8718   -3.0484    0.0000 C.3     1  UNL1        0.0790
     24 C           2.0000   -0.4967    0.0000 C.3     1  UNL1        0.0790
     25 H           7.2636   -2.3742    0.0000 H       1  UNL1        0.0513
     26 H           5.9995   -2.4992    0.0000 H       1  UNL1        0.0332
     27 H           6.7966   -2.4992    0.0000 H       1  UNL1        0.0332
     28 H           8.1177   -2.6411    0.0000 H       1  UNL1        0.1225
     29 H           9.6205   -0.6715    0.0000 H       1  UNL1        0.0326
     30 H           9.2452    0.0295    0.0000 H       1  UNL1        0.0326
     31 H           9.1895   -2.1232    0.0000 H       1  UNL1        0.0427
     32 H           9.6006   -1.4426    0.0000 H       1  UNL1        0.0427
     33 H           8.7203    1.3322    0.0000 H       1  UNL1        0.0658
     34 H           4.6453   -2.6788    0.0000 H       1  UNL1        0.0658
     35 H           4.6453    0.6304    0.0000 H       1  UNL1        0.0661
     36 H           5.5031    2.1272    0.0000 H       1  UNL1        0.2923
     37 H           8.4523    2.5126    0.0000 H       1  UNL1        0.0660
     38 H           8.6760    3.3604    0.0000 H       1  UNL1        0.0660
     39 H           7.8282    3.5841    0.0000 H       1  UNL1        0.0660
     40 H           2.2518   -3.0508    0.0000 H       1  UNL1        0.0660
     41 H           2.8742   -3.6684    0.0000 H       1  UNL1        0.0660
     42 H           3.4918   -3.0460    0.0000 H       1  UNL1        0.0660
     43 H           1.6921    0.0414    0.0000 H       1  UNL1        0.0660
     44 H           1.4619   -0.8047    0.0000 H       1  UNL1        0.0660
     45 H           2.3079   -1.0349    0.0000 H       1  UNL1        0.0660
@<TRIPOS>BOND
     1     1    15    1
     2     1    36    1
     3     2    17    1
     4     2    22    1
     5     3    20    1
     6     3    23    1
     7     4    21    1
     8     4    24    1
     9     5     6    1
    10     5    13    1
    11     5    28    1
    12     6     7    1
    13     6     8    1
    14     6    25    1
    15     7     9   ar
    16     7    10   ar
    17     8    12    1
    18     8    26    1
    19     8    27    1
    20     9    11    1
    21     9    16   ar
    22    10    14    1
    23    10    15   ar
    24    11    13    1
    25    11    29    1
    26    11    30    1
    27    12    14   ar
    28    12    18   ar
    29    13    31    1
    30    13    32    1
    31    14    19   ar
    32    15    17   ar
    33    16    17   ar
    34    16    33    1
    35    18    20   ar
    36    18    34    1
    37    19    21   ar
    38    19    35    1
    39    20    21   ar
    40    22    37    1
    41    22    38    1
    42    22    39    1
    43    23    40    1
    44    23    41    1
    45    23    42    1
    46    24    43    1
    47    24    44    1
    48    24    45    1
