@<TRIPOS>MOLECULE
IMPHY004312
 129 134 0 0 0
SMALL
GASTEIGER

@<TRIPOS>ATOM
      1 O          10.3312   -4.6599    0.0000 O.3     1  UNL1       -0.3446
      2 O          11.1799    4.4130    0.0000 O.3     1  UNL1       -0.3889
      3 O           8.5538    4.7347    0.0000 O.3     1  UNL1       -0.3866
      4 O          10.8162    6.1064    0.0000 O.3     1  UNL1       -0.3863
      5 O           8.5991   -4.6599    0.0000 O.3     1  UNL1       -0.3405
      6 O           8.4970    7.3799    0.0000 O.3     1  UNL1       -0.3865
      7 O          10.3312   -6.6599    0.0000 O.3     1  UNL1       -0.3841
      8 O           8.5991   -7.6599    0.0000 O.3     1  UNL1       -0.3864
      9 O           6.8671   -6.6599    0.0000 O.3     1  UNL1       -0.3865
     10 O           6.0010   -5.1599    0.0000 O.3     1  UNL1       -0.3460
     11 O           4.2690   -5.1599    0.0000 O.3     1  UNL1       -0.3405
     12 O           6.0010   -3.1599    0.0000 O.3     1  UNL1       -0.3841
     13 O           4.2690   -2.1599    0.0000 O.3     1  UNL1       -0.3864
     14 O           2.5369   -3.1599    0.0000 O.3     1  UNL1       -0.3865
     15 O           2.5369   -6.1599    0.0000 O.3     1  UNL1       -0.3924
     16 C          11.2284    1.0403    0.0000 C.3     1  UNL1       -0.0228
     17 C          10.3604    1.5369    0.0000 C.3     1  UNL1       -0.0232
     18 C          11.2322    0.0403    0.0000 C.3     1  UNL1       -0.0257
     19 C          10.3681   -0.4630    0.0000 C.3     1  UNL1       -0.0219
     20 C          10.5659    2.5096    0.0000 C.3     1  UNL1       -0.0301
     21 C           9.4963    1.0336    0.0000 C.3     1  UNL1       -0.0463
     22 C          11.9628    1.7102    0.0000 C.3     1  UNL1       -0.0466
     23 C           9.5002    0.0336    0.0000 C.3     1  UNL1       -0.0463
     24 C          10.3561   -1.5046    0.0000 C.3     1  UNL1       -0.0136
     25 C          11.5542    2.6164    0.0000 C.3     1  UNL1       -0.0489
     26 C          12.1442   -0.4630    0.0000 C.3     1  UNL1       -0.0306
     27 C          12.0963    0.5436    0.0000 C.3     1  UNL1       -0.0588
     28 C           9.4925    2.0336    0.0000 C.3     1  UNL1       -0.0588
     29 C           9.8952    3.2513    0.0000 C.3     1  UNL1       -0.0119
     30 C          11.2562   -2.0289    0.0000 C.2     1  UNL1       -0.0617
     31 C           9.5040   -0.9664    0.0000 C.3     1  UNL1       -0.0587
     32 C           9.4062   -2.0289    0.0000 C.3     1  UNL1       -0.0436
     33 C          12.1562   -1.5046    0.0000 C.2     1  UNL1       -0.0836
     34 C          11.2687   -3.1138    0.0000 C.3     1  UNL1        0.0127
     35 C           9.3936   -3.1138    0.0000 C.3     1  UNL1       -0.0251
     36 C          10.3312   -3.6599    0.0000 C.3     1  UNL1        0.0706
     37 C          10.2022    4.2030    0.0000 C.3     1  UNL1        0.0864
     38 C           8.9175    3.0413    0.0000 C.3     1  UNL1       -0.0597
     39 C          12.2687   -3.1061    0.0000 C.3     1  UNL1       -0.0537
     40 C          11.7754   -3.9760    0.0000 C.3     1  UNL1       -0.0537
     41 C           9.5315    4.9447    0.0000 C.3     1  UNL1        0.1097
     42 C           9.8385    5.8964    0.0000 C.3     1  UNL1        0.1115
     43 C           9.4651   -5.1599    0.0000 C.3     1  UNL1        0.1882
     44 C           9.1678    6.6382    0.0000 C.3     1  UNL1        0.0888
     45 C           9.4651   -6.1599    0.0000 C.3     1  UNL1        0.1341
     46 C           8.5991   -6.6599    0.0000 C.3     1  UNL1        0.1141
     47 C           9.9095    7.3088    0.0000 C.3     1  UNL1       -0.0338
     48 C           8.4260    5.9674    0.0000 C.3     1  UNL1       -0.0338
     49 C           7.7331   -5.1599    0.0000 C.3     1  UNL1        0.1134
     50 C           7.7331   -6.1599    0.0000 C.3     1  UNL1        0.1119
     51 C           6.8671   -4.6599    0.0000 C.3     1  UNL1        0.0796
     52 C           5.1350   -4.6599    0.0000 C.3     1  UNL1        0.1880
     53 C           5.1350   -3.6599    0.0000 C.3     1  UNL1        0.1341
     54 C           4.2690   -3.1599    0.0000 C.3     1  UNL1        0.1141
     55 C           3.4030   -4.6599    0.0000 C.3     1  UNL1        0.1130
     56 C           3.4030   -3.6599    0.0000 C.3     1  UNL1        0.1119
     57 C           2.5369   -5.1599    0.0000 C.3     1  UNL1        0.0730
     58 H          11.9634    0.4738    0.0000 H       1  UNL1        0.0315
     59 H          10.8685    3.3039    0.0000 H       1  UNL1        0.0310
     60 H           9.2820    1.6154    0.0000 H       1  UNL1        0.0271
     61 H           8.8862    0.9236    0.0000 H       1  UNL1        0.0271
     62 H          12.3302    1.2108    0.0000 H       1  UNL1        0.0271
     63 H          12.4981    2.0230    0.0000 H       1  UNL1        0.0271
     64 H           8.8892    0.1389    0.0000 H       1  UNL1        0.0271
     65 H           9.2904   -0.5498    0.0000 H       1  UNL1        0.0271
     66 H          11.0955   -1.0853    0.0000 H       1  UNL1        0.0351
     67 H          12.1431    2.8105    0.0000 H       1  UNL1        0.0268
     68 H          11.4231    3.2224    0.0000 H       1  UNL1        0.0268
     69 H          12.7562   -0.5621    0.0000 H       1  UNL1        0.0310
     70 H          12.3465    0.1230    0.0000 H       1  UNL1        0.0310
     71 H          11.7884    0.0055    0.0000 H       1  UNL1        0.0235
     72 H          12.6344    0.2357    0.0000 H       1  UNL1        0.0235
     73 H          12.4042    1.0818    0.0000 H       1  UNL1        0.0235
     74 H           9.8004    2.5717    0.0000 H       1  UNL1        0.0235
     75 H           8.9544    2.3415    0.0000 H       1  UNL1        0.0235
     76 H           9.1846    1.4955    0.0000 H       1  UNL1        0.0235
     77 H           9.4793    3.7112    0.0000 H       1  UNL1        0.0327
     78 H           9.1920   -0.4306    0.0000 H       1  UNL1        0.0235
     79 H           8.9683   -1.2784    0.0000 H       1  UNL1        0.0235
     80 H           9.8161   -1.5021    0.0000 H       1  UNL1        0.0235
     81 H           9.2039   -1.4428    0.0000 H       1  UNL1        0.0272
     82 H           8.7941   -2.1279    0.0000 H       1  UNL1        0.0272
     83 H          12.6955   -1.8104    0.0000 H       1  UNL1        0.0572
     84 H           8.7840   -3.0007    0.0000 H       1  UNL1        0.0291
     85 H           9.1778   -3.6950    0.0000 H       1  UNL1        0.0291
     86 H          10.8687   -3.9689    0.0000 H       1  UNL1        0.0605
     87 H          10.3925    4.7930    0.0000 H       1  UNL1        0.0623
     88 H           8.7873    3.6475    0.0000 H       1  UNL1        0.0233
     89 H           8.3113    2.9111    0.0000 H       1  UNL1        0.0233
     90 H           9.0477    2.4351    0.0000 H       1  UNL1        0.0233
     91 H          12.2734   -3.7261    0.0000 H       1  UNL1        0.0239
     92 H          12.8887   -3.1013    0.0000 H       1  UNL1        0.0239
     93 H          12.2639   -2.4861    0.0000 H       1  UNL1        0.0239
     94 H          11.2408   -4.2901    0.0000 H       1  UNL1        0.0239
     95 H          12.0895   -4.5105    0.0000 H       1  UNL1        0.0239
     96 H          12.3099   -3.6618    0.0000 H       1  UNL1        0.0239
     97 H           9.3411    4.3546    0.0000 H       1  UNL1        0.0646
     98 H          11.3702    5.0030    0.0000 H       1  UNL1        0.2099
     99 H          10.2543    5.4366    0.0000 H       1  UNL1        0.0649
    100 H          10.0021   -5.4699    0.0000 H       1  UNL1        0.0937
    101 H           8.1379    5.1946    0.0000 H       1  UNL1        0.2100
    102 H           9.4651   -6.7799    0.0000 H       1  UNL1        0.0671
    103 H          11.0065    6.6965    0.0000 H       1  UNL1        0.2100
    104 H           8.0622   -6.9699    0.0000 H       1  UNL1        0.0648
    105 H           8.0102    6.4273    0.0000 H       1  UNL1        0.0258
    106 H           7.9662    5.5516    0.0000 H       1  UNL1        0.0258
    107 H           8.8419    5.5076    0.0000 H       1  UNL1        0.0258
    108 H          10.3253    6.8490    0.0000 H       1  UNL1        0.0258
    109 H          10.3693    7.7247    0.0000 H       1  UNL1        0.0258
    110 H           9.4936    7.7687    0.0000 H       1  UNL1        0.0258
    111 H           7.7331   -4.5399    0.0000 H       1  UNL1        0.0647
    112 H           7.1962   -5.8499    0.0000 H       1  UNL1        0.0647
    113 H           8.6874    7.9699    0.0000 H       1  UNL1        0.2102
    114 H          10.3312   -7.2799    0.0000 H       1  UNL1        0.2101
    115 H           7.2656   -4.1850    0.0000 H       1  UNL1        0.0587
    116 H           6.4685   -4.1850    0.0000 H       1  UNL1        0.0587
    117 H           8.0622   -7.9699    0.0000 H       1  UNL1        0.2100
    118 H           6.8671   -7.2799    0.0000 H       1  UNL1        0.2100
    119 H           5.1350   -5.2799    0.0000 H       1  UNL1        0.0937
    120 H           5.1350   -3.0399    0.0000 H       1  UNL1        0.0671
    121 H           3.7320   -2.8499    0.0000 H       1  UNL1        0.0648
    122 H           3.4030   -5.2799    0.0000 H       1  UNL1        0.0647
    123 H           3.9650   -3.0399    0.0000 H       1  UNL1        0.0647
    124 H           6.0010   -2.5399    0.0000 H       1  UNL1        0.2101
    125 H           2.3249   -4.5773    0.0000 H       1  UNL1        0.0584
    126 H           1.9264   -5.2676    0.0000 H       1  UNL1        0.0584
    127 H           3.7320   -1.8499    0.0000 H       1  UNL1        0.2100
    128 H           2.0000   -3.4699    0.0000 H       1  UNL1        0.2100
    129 H           2.0000   -6.4699    0.0000 H       1  UNL1        0.2095
@<TRIPOS>BOND
     1    36     1    1
     2    43     1    1
     3    37     2    1
     4     2    98    1
     5    41     3    1
     6     3   101    1
     7    42     4    1
     8     4   103    1
     9     5    43    1
    10     5    49    1
    11     6    44    1
    12     6   113    1
    13    45     7    1
    14     7   114    1
    15    46     8    1
    16     8   117    1
    17    50     9    1
    18     9   118    1
    19    10    51    1
    20    52    10    1
    21    11    52    1
    22    11    55    1
    23    53    12    1
    24    12   124    1
    25    54    13    1
    26    13   127    1
    27    56    14    1
    28    14   128    1
    29    15    57    1
    30    15   129    1
    31    16    17    1
    32    16    18    1
    33    16    22    1
    34    16    27    1
    35    17    20    1
    36    17    21    1
    37    17    28    1
    38    18    19    1
    39    18    26    1
    40    18    58    1
    41    19    23    1
    42    19    24    1
    43    19    31    1
    44    20    25    1
    45    20    29    1
    46    20    59    1
    47    21    23    1
    48    21    60    1
    49    21    61    1
    50    22    25    1
    51    22    62    1
    52    22    63    1
    53    23    64    1
    54    23    65    1
    55    24    30    1
    56    24    32    1
    57    24    66    1
    58    25    67    1
    59    25    68    1
    60    26    33    1
    61    26    69    1
    62    26    70    1
    63    27    71    1
    64    27    72    1
    65    27    73    1
    66    28    74    1
    67    28    75    1
    68    28    76    1
    69    29    37    1
    70    29    38    1
    71    29    77    1
    72    30    33    2
    73    30    34    1
    74    31    78    1
    75    31    79    1
    76    31    80    1
    77    32    35    1
    78    32    81    1
    79    32    82    1
    80    33    83    1
    81    34    36    1
    82    34    39    1
    83    34    40    1
    84    35    36    1
    85    35    84    1
    86    35    85    1
    87    36    86    1
    88    37    41    1
    89    37    87    1
    90    38    88    1
    91    38    89    1
    92    38    90    1
    93    39    91    1
    94    39    92    1
    95    39    93    1
    96    40    94    1
    97    40    95    1
    98    40    96    1
    99    41    42    1
   100    41    97    1
   101    42    44    1
   102    42    99    1
   103    43    45    1
   104    43   100    1
   105    44    47    1
   106    44    48    1
   107    45    46    1
   108    45   102    1
   109    46    50    1
   110    46   104    1
   111    47   108    1
   112    47   109    1
   113    47   110    1
   114    48   105    1
   115    48   106    1
   116    48   107    1
   117    49    50    1
   118    49    51    1
   119    49   111    1
   120    50   112    1
   121    51   115    1
   122    51   116    1
   123    52    53    1
   124    52   119    1
   125    53    54    1
   126    53   120    1
   127    54    56    1
   128    54   121    1
   129    55    56    1
   130    55    57    1
   131    55   122    1
   132    56   123    1
   133    57   125    1
   134    57   126    1
