@<TRIPOS>MOLECULE
IMPHY016922
 16 17 0 0 0
SMALL
GASTEIGER
****
Copyrights - http://chemeo.com/rights
@<TRIPOS>ATOM
      1 C          -3.1139    0.4167    0.0000 C.3     1  UNL1        0.0214
      2 C          -2.5789   -0.9847    0.0000 C.3     1  UNL1        0.0050
      3 C          -1.0978   -1.2220    0.0000 C.3     1  UNL1        0.0081
      4 C          -2.1679    1.5807    0.0000 C.2     1  UNL1       -0.0515
      5 C          -0.6868    1.3434    0.0000 C.2     1  UNL1       -0.0480
      6 C          -0.1517   -0.0579    0.0000 C.3     1  UNL1        0.0391
      7 C           1.3294   -0.2952    0.0000 C.2     1  UNL1       -0.0284
      8 C           2.2755    0.8688    0.0000 C.2     1  UNL1       -0.0153
      9 C           1.7404    2.2701    0.0000 C.3     1  UNL1        0.0286
     10 C           0.2593    2.5074    0.0000 C.3     1  UNL1        0.0261
     11 C          -2.7029    2.9820    0.0000 C.3     1  UNL1        0.0257
     12 C          -0.5627   -2.6233    0.0000 C.3     1  UNL1        0.0006
     13 C          -1.5088   -3.7873    0.0000 C.3     1  UNL1        0.0000
     14 C           0.9184   -2.8606    0.0000 C.3     1  UNL1        0.0000
     15 C           3.7566    0.6315    0.0000 C.3     1  UNL1        0.2041
     16 O           4.2916   -0.7698    0.0000 O.3     1  UNL1       -0.2155
@<TRIPOS>BOND
     1     1     4    1
     2     2     1    1
     3     3    12    1
     4     3     2    1
     5     4     5    2
     6     4    11    1
     7     5    10    1
     8     6     5    1
     9     6     3    1
    10     7     6    1
    11     8     7    2
    12     8    15    1
    13     9     8    1
    14    10     9    1
    15    12    13    1
    16    12    14    1
    17    15    16    1
