@<TRIPOS>MOLECULE
IMPHY010652
 35 39 0 0 0
SMALL
GASTEIGER

@<TRIPOS>ATOM
      1 O           4.3675   -0.6000    0.0000 O.3     1  UNL1       -0.4596
      2 C           5.4693   -1.2493    0.0000 C.3     1  UNL1        0.1202
      3 C           6.5612   -0.6000    0.0000 C.3     1  UNL1        0.0468
      4 C           7.6530   -1.2493    0.0000 C.3     1  UNL1        0.0295
      5 N           7.6530   -2.5084    0.0000 N.3     1  UNL1       -0.2807
      6 C           8.7548   -3.1379    0.0000 C.3     1  UNL1        0.0717
      7 C           9.8368   -2.5084    0.0000 C.3     1  UNL1        0.0174
      8 C           9.8368   -1.2493    0.0000 C.3     1  UNL1        0.0024
      9 C           8.7548   -0.6000    0.0000 C.3     1  UNL1        0.0108
     10 C           3.2855   -1.2493    0.0000 C.2     1  UNL1        0.3168
     11 C           2.1936   -0.6000    0.0000 C.3     1  UNL1        0.1142
     12 C           1.1017   -1.2493    0.0000 C.3     1  UNL1        0.0380
     13 C           1.1017   -3.1379    0.0000 C.ar    1  UNL1       -0.0214
     14 C           2.1936   -3.7577    0.0000 C.ar    1  UNL1       -0.0011
     15 C           2.1936   -5.0069    0.0000 C.ar    1  UNL1        0.0385
     16 C           1.1017   -5.6365    0.0000 C.ar    1  UNL1        0.1956
     17 C           0.0000   -5.0069    0.0000 C.ar    1  UNL1        0.0417
     18 C           0.0000   -3.7577    0.0000 C.ar    1  UNL1       -0.0010
     19 C           5.4693   -2.5084    0.0000 C.3     1  UNL1        0.0509
     20 C           6.5612   -3.1379    0.0000 C.3     1  UNL1        0.0483
     21 C           6.5612   -4.3872    0.0000 C.ar    1  UNL1       -0.0096
     22 C           5.4693   -5.0069    0.0000 C.ar    1  UNL1        0.0032
     23 C           5.4693   -6.2857    0.0000 C.ar    1  UNL1        0.0399
     24 C           6.5612   -6.9153    0.0000 C.ar    1  UNL1        0.1724
     25 C           7.6530   -6.2857    0.0000 C.ar    1  UNL1        0.1721
     26 C           7.6530   -5.0069    0.0000 C.ar    1  UNL1        0.0367
     27 O           3.2855   -2.5084    0.0000 O.2     1  UNL1       -0.2501
     28 O           1.1017   -6.9054    0.0000 O.3     1  UNL1       -0.2866
     29 O           6.5612   -8.1744    0.0000 O.3     1  UNL1       -0.4684
     30 C           5.4693   -8.7941    0.0000 C.3     1  UNL1        0.2526
     31 O           8.7548   -6.9153    0.0000 O.3     1  UNL1       -0.4684
     32 C           8.7548   -8.1744    0.0000 C.3     1  UNL1        0.2526
     33 H           7.6530    0.0000    0.0000 H       1  UNL1        0.0476
     34 H           6.5612   -1.8690    0.0000 H       1  UNL1        0.0520
     35 H           5.4693    0.0000    0.0000 H       1  UNL1        0.0747
@<TRIPOS>BOND
     1     1     2    1
     2     1    10    1
     3     2     3    1
     4     2    19    1
     5     2    35    1
     6     3     4    1
     7     4     9    1
     8     4     5    1
     9     4    33    1
    10     5    20    1
    11     5     6    1
    12     6     7    1
    13     7     8    1
    14     8     9    1
    15    10    11    1
    16    10    27    2
    17    11    12    1
    18    12    13    1
    19    13    14   ar
    20    13    18   ar
    21    14    15   ar
    22    15    22    1
    23    15    16   ar
    24    16    17   ar
    25    16    28    1
    26    17    18   ar
    27    19    20    1
    28    20    21    1
    29    20    34    1
    30    21    26   ar
    31    21    22   ar
    32    22    23   ar
    33    23    24   ar
    34    24    25   ar
    35    24    29    1
    36    25    26   ar
    37    25    31    1
    38    29    30    1
    39    31    32    1
