@<TRIPOS>MOLECULE
IMPHY002781
 40 42 0 0 0
SMALL
GASTEIGER

@<TRIPOS>ATOM
      1 O           5.1482    2.4699    0.0000 O.3     1  UNL1       -0.4575
      2 O           4.6840   -2.2260    0.0000 O.3     1  UNL1       -0.3912
      3 O           6.8881    2.8281    0.0000 O.2     1  UNL1       -0.2453
      4 C           4.0984   -0.5490    0.0000 C.3     1  UNL1       -0.0024
      5 C           3.1974   -0.1151    0.0000 C.3     1  UNL1       -0.0305
      6 C           3.9624   -1.5337    0.0000 C.3     1  UNL1        0.0609
      7 C           2.9749    0.8598    0.0000 C.3     1  UNL1       -0.0371
      8 C           4.9994   -0.1151    0.0000 C.3     1  UNL1       -0.0346
      9 C           2.5124   -0.8354    0.0000 C.3     1  UNL1       -0.0470
     10 C           5.2219    0.8598    0.0000 C.3     1  UNL1        0.0280
     11 C           2.9842   -1.7104    0.0000 C.3     1  UNL1       -0.0261
     12 C           3.5984    1.6417    0.0000 C.3     1  UNL1       -0.0122
     13 C           4.5984    1.6417    0.0000 C.3     1  UNL1        0.1106
     14 C           4.9994   -0.9829    0.0000 C.3     1  UNL1       -0.0569
     15 C           2.0000    1.0824    0.0000 C.3     1  UNL1       -0.0620
     16 C           6.1517    1.2115    0.0000 C.2     1  UNL1        0.0361
     17 C           6.1062    2.2046    0.0000 C.2     1  UNL1        0.3353
     18 C           6.9872    0.6621    0.0000 C.2     1  UNL1       -0.0883
     19 H           2.3778    0.1100    0.0000 H       1  UNL1        0.0309
     20 H           4.5481   -1.3302    0.0000 H       1  UNL1        0.0599
     21 H           2.7702    1.4450    0.0000 H       1  UNL1        0.0302
     22 H           5.1374   -0.7195    0.0000 H       1  UNL1        0.0278
     23 H           5.6194   -0.1151    0.0000 H       1  UNL1        0.0278
     24 H           2.1105   -0.3632    0.0000 H       1  UNL1        0.0269
     25 H           2.0006   -1.1854    0.0000 H       1  UNL1        0.0269
     26 H           5.8627    0.3014    0.0000 H       1  UNL1        0.0387
     27 H           2.4105   -1.9456    0.0000 H       1  UNL1        0.0290
     28 H           3.1579   -2.3055    0.0000 H       1  UNL1        0.0290
     29 H           3.7364    2.2461    0.0000 H       1  UNL1        0.0304
     30 H           3.0398    1.9107    0.0000 H       1  UNL1        0.0304
     31 H           4.1966    2.3907    0.0000 H       1  UNL1        0.0740
     32 H           4.7304   -1.5414    0.0000 H       1  UNL1        0.0236
     33 H           5.5580   -1.2519    0.0000 H       1  UNL1        0.0236
     34 H           5.2684   -0.4243    0.0000 H       1  UNL1        0.0236
     35 H           2.1380    1.6868    0.0000 H       1  UNL1        0.0233
     36 H           1.3955    1.2203    0.0000 H       1  UNL1        0.0233
     37 H           1.8620    0.4779    0.0000 H       1  UNL1        0.0233
     38 H           4.5360   -2.8281    0.0000 H       1  UNL1        0.2098
     39 H           6.9512    0.0431    0.0000 H       1  UNL1        0.0540
     40 H           7.5412    0.9404    0.0000 H       1  UNL1        0.0540
@<TRIPOS>BOND
     1     1    13    1
     2     1    17    1
     3     6     2    1
     4     2    38    1
     5     3    17    2
     6     4     5    1
     7     4     6    1
     8     4     8    1
     9     4    14    1
    10     5     7    1
    11     5     9    1
    12     5    19    1
    13     6    11    1
    14     6    20    1
    15     7    12    1
    16     7    15    1
    17     7    21    1
    18     8    10    1
    19     8    22    1
    20     8    23    1
    21     9    11    1
    22     9    24    1
    23     9    25    1
    24    10    13    1
    25    10    16    1
    26    10    26    1
    27    11    27    1
    28    11    28    1
    29    12    13    1
    30    12    29    1
    31    12    30    1
    32    13    31    1
    33    14    32    1
    34    14    33    1
    35    14    34    1
    36    15    35    1
    37    15    36    1
    38    15    37    1
    39    16    17    1
    40    16    18    2
    41    18    39    1
    42    18    40    1
