@<TRIPOS>MOLECULE
IMPHY012071
 37 37 0 0 0
SMALL
GASTEIGER

@<TRIPOS>ATOM
      1 O           2.5369    0.4330    0.0000 O.3     1  UNL1       -0.5065
      2 C           4.2690    1.4330    0.0000 C.3     1  UNL1       -0.0092
      3 C           6.0010   -1.5670    0.0000 C.3     1  UNL1       -0.0127
      4 C           4.2690    0.4330    0.0000 C.ar    1  UNL1       -0.0003
      5 C           5.1350   -1.0670    0.0000 C.ar    1  UNL1       -0.0415
      6 C           5.1350   -0.0670    0.0000 C.ar    1  UNL1       -0.0509
      7 C           4.2690    2.4330    0.0000 C.3     1  UNL1       -0.0559
      8 C           5.2690    1.4330    0.0000 C.3     1  UNL1       -0.0559
      9 C           3.2690    1.4330    0.0000 C.3     1  UNL1       -0.0559
     10 C           6.8671   -2.0670    0.0000 C.3     1  UNL1       -0.0560
     11 C           5.5010   -2.4330    0.0000 C.3     1  UNL1       -0.0560
     12 C           6.5010   -0.7010    0.0000 C.3     1  UNL1       -0.0560
     13 C           3.4030   -0.0670    0.0000 C.ar    1  UNL1        0.1205
     14 C           4.2690   -1.5670    0.0000 C.ar    1  UNL1       -0.0546
     15 C           3.4030   -1.0670    0.0000 C.ar    1  UNL1       -0.0196
     16 H           5.6720    0.2430    0.0000 H       1  UNL1        0.0624
     17 H           4.8890    2.4330    0.0000 H       1  UNL1        0.0238
     18 H           4.2690    3.0530    0.0000 H       1  UNL1        0.0238
     19 H           3.6490    2.4330    0.0000 H       1  UNL1        0.0238
     20 H           5.2690    0.8130    0.0000 H       1  UNL1        0.0238
     21 H           5.8890    1.4330    0.0000 H       1  UNL1        0.0238
     22 H           5.2690    2.0530    0.0000 H       1  UNL1        0.0238
     23 H           3.2690    2.0530    0.0000 H       1  UNL1        0.0238
     24 H           2.6490    1.4330    0.0000 H       1  UNL1        0.0238
     25 H           3.2690    0.8130    0.0000 H       1  UNL1        0.0238
     26 H           6.5571   -2.6039    0.0000 H       1  UNL1        0.0238
     27 H           7.4040   -2.3770    0.0000 H       1  UNL1        0.0238
     28 H           7.1771   -1.5300    0.0000 H       1  UNL1        0.0238
     29 H           4.9641   -2.1230    0.0000 H       1  UNL1        0.0238
     30 H           5.1910   -2.9700    0.0000 H       1  UNL1        0.0238
     31 H           6.0380   -2.7430    0.0000 H       1  UNL1        0.0238
     32 H           7.0380   -1.0110    0.0000 H       1  UNL1        0.0238
     33 H           6.8110   -0.1640    0.0000 H       1  UNL1        0.0238
     34 H           5.9641   -0.3910    0.0000 H       1  UNL1        0.0238
     35 H           4.2690   -2.1870    0.0000 H       1  UNL1        0.0622
     36 H           2.8660   -1.3770    0.0000 H       1  UNL1        0.0654
     37 H           2.0000    0.1230    0.0000 H       1  UNL1        0.2921
@<TRIPOS>BOND
     1     1    13    1
     2     1    37    1
     3     2     4    1
     4     2     7    1
     5     2     8    1
     6     2     9    1
     7     3     5    1
     8     3    10    1
     9     3    11    1
    10     3    12    1
    11     4     6   ar
    12     4    13   ar
    13     5     6   ar
    14     5    14   ar
    15     6    16    1
    16     7    17    1
    17     7    18    1
    18     7    19    1
    19     8    20    1
    20     8    21    1
    21     8    22    1
    22     9    23    1
    23     9    24    1
    24     9    25    1
    25    10    26    1
    26    10    27    1
    27    10    28    1
    28    11    29    1
    29    11    30    1
    30    11    31    1
    31    12    32    1
    32    12    33    1
    33    12    34    1
    34    13    15   ar
    35    14    15   ar
    36    14    35    1
    37    15    36    1
