@<TRIPOS>MOLECULE
IMPHY001374
 41 44 0 0 0
SMALL
GASTEIGER

@<TRIPOS>ATOM
      1 O           2.0520    1.7320    0.0000 O.2     1  UNL1       -0.2970
      2 N           3.8001   -1.3095    0.0000 N.3     1  UNL1       -0.2920
      3 C           3.7841   -0.2680    0.0000 C.3     1  UNL1        0.0530
      4 C           2.9180    0.2320    0.0000 C.3     1  UNL1        0.0398
      5 C           4.6501    0.2320    0.0000 C.2     1  UNL1       -0.0492
      6 C           4.6501    1.2320    0.0000 C.3     1  UNL1       -0.0112
      7 C           3.5810    0.1019    0.0000 C.3     1  UNL1       -0.0273
      8 C           3.4973    0.8976    0.0000 C.3     1  UNL1       -0.0413
      9 C           4.2282    1.2229    0.0000 C.3     1  UNL1       -0.0434
     10 C           2.0080   -0.2748    0.0000 C.3     1  UNL1       -0.0403
     11 C           3.7841    1.7320    0.0000 C.3     1  UNL1        0.0128
     12 C           2.9180    1.2320    0.0000 C.2     1  UNL1        0.1390
     13 C           2.9021   -1.8372    0.0000 C.3     1  UNL1       -0.0002
     14 C           4.6984   -1.8184    0.0000 C.3     1  UNL1        0.0032
     15 C           2.0000   -1.3164    0.0000 C.3     1  UNL1       -0.0395
     16 C           5.5599   -0.2560    0.0000 C.2     1  UNL1       -0.0815
     17 C           5.5842   -1.2881    0.0000 C.3     1  UNL1       -0.0216
     18 C           3.1553    1.8372    0.0000 C.3     1  UNL1       -0.0623
     19 H           2.1819    0.6570    0.0000 H       1  UNL1        0.0399
     20 H           5.0751    1.9681    0.0000 H       1  UNL1        0.0350
     21 H           2.9862    0.2771    0.0000 H       1  UNL1        0.0289
     22 H           4.1726    0.2872    0.0000 H       1  UNL1        0.0289
     23 H           2.8932    0.7581    0.0000 H       1  UNL1        0.0299
     24 H           4.4522    1.8011    0.0000 H       1  UNL1        0.0274
     25 H           4.3636    0.6179    0.0000 H       1  UNL1        0.0274
     26 H           1.8035    0.3105    0.0000 H       1  UNL1        0.0273
     27 H           1.3964   -0.3762    0.0000 H       1  UNL1        0.0273
     28 H           4.1826    2.2070    0.0000 H       1  UNL1        0.0347
     29 H           3.3855    2.2070    0.0000 H       1  UNL1        0.0347
     30 H           2.5048   -2.3132    0.0000 H       1  UNL1        0.0427
     31 H           3.3030   -2.3101    0.0000 H       1  UNL1        0.0427
     32 H           4.3050   -2.2976    0.0000 H       1  UNL1        0.0430
     33 H           5.1032   -2.2880    0.0000 H       1  UNL1        0.0430
     34 H           1.3900   -1.2056    0.0000 H       1  UNL1        0.0278
     35 H           1.7864   -1.8985    0.0000 H       1  UNL1        0.0278
     36 H           6.0881    0.0686    0.0000 H       1  UNL1        0.0573
     37 H           5.8069   -1.8667    0.0000 H       1  UNL1        0.0320
     38 H           6.1924   -1.1677    0.0000 H       1  UNL1        0.0320
     39 H           3.7379    2.0493    0.0000 H       1  UNL1        0.0232
     40 H           2.9433    2.4198    0.0000 H       1  UNL1        0.0232
     41 H           2.5727    1.6252    0.0000 H       1  UNL1        0.0232
@<TRIPOS>BOND
     1     1    12    2
     2     3     2    1
     3     2    13    1
     4     2    14    1
     5     3     4    1
     6     3     5    1
     7     3     7    1
     8     4    10    1
     9     4    12    1
    10     4    19    1
    11     5     6    1
    12     5    16    2
    13     6     9    1
    14     6    11    1
    15     6    20    1
    16     7     8    1
    17     7    21    1
    18     7    22    1
    19     8     9    1
    20     8    18    1
    21     8    23    1
    22     9    24    1
    23     9    25    1
    24    10    15    1
    25    10    26    1
    26    10    27    1
    27    11    12    1
    28    11    28    1
    29    11    29    1
    30    13    15    1
    31    13    30    1
    32    13    31    1
    33    14    17    1
    34    14    32    1
    35    14    33    1
    36    15    34    1
    37    15    35    1
    38    16    17    1
    39    16    36    1
    40    17    37    1
    41    17    38    1
    42    18    39    1
    43    18    40    1
    44    18    41    1
