@<TRIPOS>MOLECULE
IMPHY001990
 58 59 0 0 0
SMALL
GASTEIGER

@<TRIPOS>ATOM
      1 O           8.5991   -0.5000    0.0000 O.3     1  UNL1       -0.3405
      2 O           5.1350    0.5000    0.0000 O.3     1  UNL1       -0.3405
      3 O           6.8671    0.5000    0.0000 O.3     1  UNL1       -0.3460
      4 O          10.3312   -0.5000    0.0000 O.3     1  UNL1       -0.3280
      5 O           6.8671   -2.5000    0.0000 O.3     1  UNL1       -0.3865
      6 O           8.5991   -3.5000    0.0000 O.3     1  UNL1       -0.3864
      7 O          10.3312   -2.5000    0.0000 O.3     1  UNL1       -0.3841
      8 O           6.8671    2.5000    0.0000 O.3     1  UNL1       -0.3841
      9 O           5.1350    3.5000    0.0000 O.3     1  UNL1       -0.3864
     10 O           3.4030    2.5000    0.0000 O.3     1  UNL1       -0.3865
     11 O           2.5369    1.0000    0.0000 O.3     1  UNL1       -0.3924
     12 N          12.3312    0.5000    0.0000 N.1     1  UNL1       -0.1935
     13 C           7.7331   -1.0000    0.0000 C.3     1  UNL1        0.1134
     14 C           7.7331   -2.0000    0.0000 C.3     1  UNL1        0.1119
     15 C           8.5991   -2.5000    0.0000 C.3     1  UNL1        0.1141
     16 C           9.4651   -2.0000    0.0000 C.3     1  UNL1        0.1342
     17 C           9.4651   -1.0000    0.0000 C.3     1  UNL1        0.1898
     18 C           6.0010    2.0000    0.0000 C.3     1  UNL1        0.1341
     19 C           6.0010    1.0000    0.0000 C.3     1  UNL1        0.1880
     20 C           5.1350    2.5000    0.0000 C.3     1  UNL1        0.1141
     21 C           4.2690    2.0000    0.0000 C.3     1  UNL1        0.1119
     22 C           6.8671   -0.5000    0.0000 C.3     1  UNL1        0.0796
     23 C           4.2690    1.0000    0.0000 C.3     1  UNL1        0.1130
     24 C           3.4030    0.5000    0.0000 C.3     1  UNL1        0.0730
     25 C          10.3312    0.5000    0.0000 C.3     1  UNL1        0.1546
     26 C          10.3312    1.5000    0.0000 C.3     1  UNL1       -0.0135
     27 C           9.3312    0.5000    0.0000 C.3     1  UNL1       -0.0224
     28 C          11.1972    2.0000    0.0000 C.3     1  UNL1       -0.0617
     29 C          11.3312    0.5000    0.0000 C.1     1  UNL1        0.0973
     30 H           7.7331   -0.3800    0.0000 H       1  UNL1        0.0647
     31 H           7.7331   -2.6200    0.0000 H       1  UNL1        0.0647
     32 H           9.1360   -2.8100    0.0000 H       1  UNL1        0.0648
     33 H          10.0021   -1.6900    0.0000 H       1  UNL1        0.0671
     34 H           9.4651   -0.3800    0.0000 H       1  UNL1        0.0938
     35 H           6.5380    1.6900    0.0000 H       1  UNL1        0.0671
     36 H           6.0010    0.3800    0.0000 H       1  UNL1        0.0937
     37 H           5.6720    2.8100    0.0000 H       1  UNL1        0.0648
     38 H           4.2690    2.6200    0.0000 H       1  UNL1        0.0647
     39 H           4.2690    0.3800    0.0000 H       1  UNL1        0.0647
     40 H           6.2565   -0.3923    0.0000 H       1  UNL1        0.0587
     41 H           6.6550   -1.0826    0.0000 H       1  UNL1        0.0587
     42 H           3.0044    0.0251    0.0000 H       1  UNL1        0.0584
     43 H           3.8015    0.0251    0.0000 H       1  UNL1        0.0584
     44 H           6.3301   -2.1900    0.0000 H       1  UNL1        0.2100
     45 H           8.0622   -3.8100    0.0000 H       1  UNL1        0.2100
     46 H          10.3312   -3.1200    0.0000 H       1  UNL1        0.2101
     47 H           6.8671    3.1200    0.0000 H       1  UNL1        0.2101
     48 H           4.5981    3.8100    0.0000 H       1  UNL1        0.2100
     49 H           3.4030    3.1200    0.0000 H       1  UNL1        0.2100
     50 H          10.1191    2.0826    0.0000 H       1  UNL1        0.0300
     51 H           9.7206    1.3923    0.0000 H       1  UNL1        0.0300
     52 H           9.3312    1.1200    0.0000 H       1  UNL1        0.0268
     53 H           8.7112    0.5000    0.0000 H       1  UNL1        0.0268
     54 H           9.3312   -0.1200    0.0000 H       1  UNL1        0.0268
     55 H           2.0000    0.6900    0.0000 H       1  UNL1        0.2095
     56 H          11.5072    1.4631    0.0000 H       1  UNL1        0.0231
     57 H          11.7341    2.3100    0.0000 H       1  UNL1        0.0231
     58 H          10.8872    2.5369    0.0000 H       1  UNL1        0.0231
@<TRIPOS>BOND
     1     1    13    1
     2     1    17    1
     3     2    19    1
     4     2    23    1
     5    19     3    1
     6     3    22    1
     7    17     4    1
     8    25     4    1
     9    14     5    1
    10     5    44    1
    11    15     6    1
    12     6    45    1
    13    16     7    1
    14     7    46    1
    15    18     8    1
    16     8    47    1
    17    20     9    1
    18     9    48    1
    19    21    10    1
    20    10    49    1
    21    11    24    1
    22    11    55    1
    23    12    29    3
    24    13    14    1
    25    13    22    1
    26    13    30    1
    27    14    15    1
    28    14    31    1
    29    15    16    1
    30    15    32    1
    31    16    17    1
    32    16    33    1
    33    17    34    1
    34    18    19    1
    35    18    20    1
    36    18    35    1
    37    19    36    1
    38    20    21    1
    39    20    37    1
    40    21    23    1
    41    21    38    1
    42    22    40    1
    43    22    41    1
    44    23    24    1
    45    23    39    1
    46    24    42    1
    47    24    43    1
    48    25    26    1
    49    25    27    1
    50    25    29    1
    51    26    28    1
    52    26    50    1
    53    26    51    1
    54    27    52    1
    55    27    53    1
    56    27    54    1
    57    28    56    1
    58    28    57    1
    59    28    58    1
