@<TRIPOS>MOLECULE
IMPHY017909
 42 41 0 0 0
SMALL
GASTEIGER

@<TRIPOS>ATOM
      1 O           4.5981   -0.5950    0.0000 O.3     1  UNL1       -0.3918
      2 C           6.3301    0.4050    0.0000 C.3     1  UNL1       -0.0507
      3 C           7.1962    0.9050    0.0000 C.3     1  UNL1       -0.0530
      4 C           5.4641    0.9050    0.0000 C.3     1  UNL1       -0.0269
      5 C           8.0622    0.4050    0.0000 C.3     1  UNL1       -0.0531
      6 C           4.5981    0.4050    0.0000 C.3     1  UNL1        0.0552
      7 C           8.9282    0.9050    0.0000 C.3     1  UNL1       -0.0531
      8 C           9.7942    0.4050    0.0000 C.3     1  UNL1       -0.0531
      9 C           3.7320    0.9050    0.0000 C.3     1  UNL1       -0.0271
     10 C          10.6603    0.9050    0.0000 C.3     1  UNL1       -0.0533
     11 C           2.8660    0.4050    0.0000 C.3     1  UNL1       -0.0536
     12 C          11.5263    0.4050    0.0000 C.3     1  UNL1       -0.0559
     13 C           2.0000    0.9050    0.0000 C.3     1  UNL1       -0.0652
     14 C          12.3923    0.9050    0.0000 C.3     1  UNL1       -0.0653
     15 H           5.9316   -0.0699    0.0000 H       1  UNL1        0.0266
     16 H           6.7287   -0.0699    0.0000 H       1  UNL1        0.0266
     17 H           7.5947    1.3800    0.0000 H       1  UNL1        0.0265
     18 H           6.7976    1.3800    0.0000 H       1  UNL1        0.0265
     19 H           5.8626    1.3800    0.0000 H       1  UNL1        0.0290
     20 H           5.0656    1.3800    0.0000 H       1  UNL1        0.0290
     21 H           7.6636   -0.0699    0.0000 H       1  UNL1        0.0265
     22 H           8.4607   -0.0699    0.0000 H       1  UNL1        0.0265
     23 H           5.3342   -0.0200    0.0000 H       1  UNL1        0.0593
     24 H           9.3267    1.3800    0.0000 H       1  UNL1        0.0265
     25 H           8.5297    1.3800    0.0000 H       1  UNL1        0.0265
     26 H           9.3957   -0.0699    0.0000 H       1  UNL1        0.0265
     27 H          10.1928   -0.0699    0.0000 H       1  UNL1        0.0265
     28 H           4.1306    1.3800    0.0000 H       1  UNL1        0.0290
     29 H           3.3335    1.3800    0.0000 H       1  UNL1        0.0290
     30 H          11.0588    1.3800    0.0000 H       1  UNL1        0.0265
     31 H          10.2617    1.3800    0.0000 H       1  UNL1        0.0265
     32 H           2.4675   -0.0699    0.0000 H       1  UNL1        0.0263
     33 H           3.2646   -0.0699    0.0000 H       1  UNL1        0.0263
     34 H          11.1278   -0.0699    0.0000 H       1  UNL1        0.0263
     35 H          11.9248   -0.0699    0.0000 H       1  UNL1        0.0263
     36 H           4.0611   -0.9050    0.0000 H       1  UNL1        0.2098
     37 H           2.3100    1.4419    0.0000 H       1  UNL1        0.0230
     38 H           1.4631    1.2150    0.0000 H       1  UNL1        0.0230
     39 H           1.6900    0.3681    0.0000 H       1  UNL1        0.0230
     40 H          12.7023    0.3681    0.0000 H       1  UNL1        0.0230
     41 H          12.9292    1.2150    0.0000 H       1  UNL1        0.0230
     42 H          12.0823    1.4419    0.0000 H       1  UNL1        0.0230
@<TRIPOS>BOND
     1     1     6    1
     2     1    36    1
     3     2     3    1
     4     2     4    1
     5     2    15    1
     6     2    16    1
     7     3     5    1
     8     3    17    1
     9     3    18    1
    10     4     6    1
    11     4    19    1
    12     4    20    1
    13     5     7    1
    14     5    21    1
    15     5    22    1
    16     6     9    1
    17     6    23    1
    18     7     8    1
    19     7    24    1
    20     7    25    1
    21     8    10    1
    22     8    26    1
    23     8    27    1
    24     9    11    1
    25     9    28    1
    26     9    29    1
    27    10    12    1
    28    10    30    1
    29    10    31    1
    30    11    13    1
    31    11    32    1
    32    11    33    1
    33    12    14    1
    34    12    34    1
    35    12    35    1
    36    13    37    1
    37    13    38    1
    38    13    39    1
    39    14    40    1
    40    14    41    1
    41    14    42    1
