@<TRIPOS>MOLECULE
IMPHY014402
 60 60 0 0 0
SMALL
GASTEIGER

@<TRIPOS>ATOM
      1 S           6.3301   -2.5950    0.0000 S.3     1  UNL1       -0.0728
      2 S           2.0000    4.9050    0.0000 S.3     1  UNL1       -0.1641
      3 S           8.0622    0.4050    0.0000 S.O2    1  UNL1        0.2709
      4 O           4.5981   -2.5950    0.0000 O.3     1  UNL1       -0.3549
      5 O           4.5981   -5.5950    0.0000 O.3     1  UNL1       -0.3865
      6 O           2.8660   -4.5950    0.0000 O.3     1  UNL1       -0.3865
      7 O           6.3301   -4.5950    0.0000 O.3     1  UNL1       -0.3857
      8 O           2.8660   -1.5950    0.0000 O.3     1  UNL1       -0.3924
      9 O           7.1962   -0.0950    0.0000 O.2     1  UNL1       -0.2068
     10 O           8.9282    0.9050    0.0000 O.3     1  UNL1       -0.2209
     11 O           7.5622    1.2710    0.0000 O.2     1  UNL1       -0.1060
     12 O           8.5622   -0.4610    0.0000 O.2     1  UNL1       -0.1060
     13 N           7.1962   -1.0950    0.0000 N.2     1  UNL1       -0.0483
     14 C           4.5981   -4.5950    0.0000 C.3     1  UNL1        0.1126
     15 C           3.7320   -4.0950    0.0000 C.3     1  UNL1        0.1118
     16 C           5.4641   -4.0950    0.0000 C.3     1  UNL1        0.1192
     17 C           3.7320   -3.0950    0.0000 C.3     1  UNL1        0.1115
     18 C           5.4641   -3.0950    0.0000 C.3     1  UNL1        0.1384
     19 C           2.8660   -2.5950    0.0000 C.3     1  UNL1        0.0730
     20 C           5.4641   -0.0950    0.0000 C.3     1  UNL1       -0.0470
     21 C           4.5981    0.4050    0.0000 C.3     1  UNL1       -0.0527
     22 C           5.4641   -1.0950    0.0000 C.3     1  UNL1       -0.0009
     23 C           6.3301   -1.5950    0.0000 C.2     1  UNL1        0.1182
     24 C           4.5981    1.4050    0.0000 C.3     1  UNL1       -0.0530
     25 C           3.7320    1.9050    0.0000 C.3     1  UNL1       -0.0530
     26 C           3.7320    2.9050    0.0000 C.3     1  UNL1       -0.0523
     27 C           2.8660    3.4050    0.0000 C.3     1  UNL1       -0.0440
     28 C           2.8660    4.4050    0.0000 C.3     1  UNL1       -0.0066
     29 C           2.0000    5.9050    0.0000 C.3     1  UNL1       -0.0181
     30 H           4.0611   -4.9050    0.0000 H       1  UNL1        0.0647
     31 H           3.7320   -4.7150    0.0000 H       1  UNL1        0.0647
     32 H           5.4641   -4.7150    0.0000 H       1  UNL1        0.0655
     33 H           3.7320   -2.4750    0.0000 H       1  UNL1        0.0646
     34 H           5.4641   -2.4750    0.0000 H       1  UNL1        0.0743
     35 H           2.2554   -2.4873    0.0000 H       1  UNL1        0.0584
     36 H           2.6540   -3.1776    0.0000 H       1  UNL1        0.0584
     37 H           4.0611   -5.9050    0.0000 H       1  UNL1        0.2100
     38 H           2.3291   -4.2850    0.0000 H       1  UNL1        0.2100
     39 H           6.8671   -4.2850    0.0000 H       1  UNL1        0.2100
     40 H           6.0747   -0.2027    0.0000 H       1  UNL1        0.0269
     41 H           5.6762    0.4876    0.0000 H       1  UNL1        0.0269
     42 H           3.9875    0.5127    0.0000 H       1  UNL1        0.0265
     43 H           4.3860   -0.1776    0.0000 H       1  UNL1        0.0265
     44 H           4.8535   -0.9873    0.0000 H       1  UNL1        0.0334
     45 H           5.2520   -1.6776    0.0000 H       1  UNL1        0.0334
     46 H           5.2087    1.2973    0.0000 H       1  UNL1        0.0265
     47 H           4.8101    1.9876    0.0000 H       1  UNL1        0.0265
     48 H           3.1215    2.0127    0.0000 H       1  UNL1        0.0265
     49 H           3.5200    1.3224    0.0000 H       1  UNL1        0.0265
     50 H           4.3426    2.7973    0.0000 H       1  UNL1        0.0266
     51 H           3.9441    3.4876    0.0000 H       1  UNL1        0.0266
     52 H           2.3291   -1.2850    0.0000 H       1  UNL1        0.2095
     53 H           2.2554    3.5127    0.0000 H       1  UNL1        0.0273
     54 H           2.6540    2.8224    0.0000 H       1  UNL1        0.0273
     55 H           3.4766    4.2973    0.0000 H       1  UNL1        0.0376
     56 H           3.0781    4.9876    0.0000 H       1  UNL1        0.0376
     57 H           2.6200    5.9050    0.0000 H       1  UNL1        0.0340
     58 H           2.0000    6.5250    0.0000 H       1  UNL1        0.0340
     59 H           1.3800    5.9050    0.0000 H       1  UNL1        0.0340
     60 H           8.9282    1.5250    0.0000 H       1  UNL1        0.2480
@<TRIPOS>BOND
     1    18     1    1
     2     1    23    1
     3     2    28    1
     4     2    29    1
     5     3     9    1
     6     3    10    1
     7     3    11    2
     8     3    12    2
     9     4    17    1
    10     4    18    1
    11    14     5    1
    12     5    37    1
    13    15     6    1
    14     6    38    1
    15    16     7    1
    16     7    39    1
    17     8    19    1
    18     8    52    1
    19     9    13    1
    20    10    60    1
    21    13    23    2
    22    14    15    1
    23    14    16    1
    24    14    30    1
    25    15    17    1
    26    15    31    1
    27    16    18    1
    28    16    32    1
    29    17    19    1
    30    17    33    1
    31    18    34    1
    32    19    35    1
    33    19    36    1
    34    20    21    1
    35    20    22    1
    36    20    40    1
    37    20    41    1
    38    21    24    1
    39    21    42    1
    40    21    43    1
    41    22    23    1
    42    22    44    1
    43    22    45    1
    44    24    25    1
    45    24    46    1
    46    24    47    1
    47    25    26    1
    48    25    48    1
    49    25    49    1
    50    26    27    1
    51    26    50    1
    52    26    51    1
    53    27    28    1
    54    27    53    1
    55    27    54    1
    56    28    55    1
    57    28    56    1
    58    29    57    1
    59    29    58    1
    60    29    59    1
