@<TRIPOS>MOLECULE
IMPHY001886
 24 25 0 0 0
SMALL
GASTEIGER

@<TRIPOS>ATOM
      1 N           2.8660    0.5000    0.0000 N.pl3   1  UNL1       -0.3145
      2 C           2.8660   -0.5000    0.0000 C.ar    1  UNL1        0.0313
      3 C           3.7320    1.0000    0.0000 C.ar    1  UNL1        0.0313
      4 C           2.0000   -1.0000    0.0000 C.ar    1  UNL1       -0.0405
      5 C           4.5981    0.5000    0.0000 C.ar    1  UNL1       -0.0405
      6 C           3.7320   -1.0000    0.0000 C.ar    1  UNL1       -0.0405
      7 C           3.7320    2.0000    0.0000 C.ar    1  UNL1       -0.0405
      8 C           2.0000   -2.0000    0.0000 C.ar    1  UNL1       -0.0600
      9 C           5.4641    1.0000    0.0000 C.ar    1  UNL1       -0.0600
     10 C           3.7320   -2.0000    0.0000 C.ar    1  UNL1       -0.0600
     11 C           4.5981    2.5000    0.0000 C.ar    1  UNL1       -0.0600
     12 C           2.8660   -2.5000    0.0000 C.ar    1  UNL1       -0.0616
     13 C           5.4641    2.0000    0.0000 C.ar    1  UNL1       -0.0616
     14 H           2.3291    0.8100    0.0000 H       1  UNL1        0.1522
     15 H           1.4631   -0.6900    0.0000 H       1  UNL1        0.0636
     16 H           4.5981   -0.1200    0.0000 H       1  UNL1        0.0636
     17 H           4.2690   -0.6900    0.0000 H       1  UNL1        0.0636
     18 H           3.1951    2.3100    0.0000 H       1  UNL1        0.0636
     19 H           1.4631   -2.3100    0.0000 H       1  UNL1        0.0618
     20 H           6.0010    0.6900    0.0000 H       1  UNL1        0.0618
     21 H           4.2690   -2.3100    0.0000 H       1  UNL1        0.0618
     22 H           4.5981    3.1200    0.0000 H       1  UNL1        0.0618
     23 H           2.8660   -3.1200    0.0000 H       1  UNL1        0.0618
     24 H           6.0010    2.3100    0.0000 H       1  UNL1        0.0618
@<TRIPOS>BOND
     1     1     2    1
     2     1     3    1
     3     1    14    1
     4     2     4   ar
     5     2     6   ar
     6     3     5   ar
     7     3     7   ar
     8     4     8   ar
     9     4    15    1
    10     5     9   ar
    11     5    16    1
    12     6    10   ar
    13     6    17    1
    14     7    11   ar
    15     7    18    1
    16     8    12   ar
    17     8    19    1
    18     9    13   ar
    19     9    20    1
    20    10    12   ar
    21    10    21    1
    22    11    13   ar
    23    11    22    1
    24    12    23    1
    25    13    24    1
