@<TRIPOS>MOLECULE
IMPHY007427
 38 38 0 0 0
SMALL
GASTEIGER

@<TRIPOS>ATOM
      1 O           2.5369   -2.7500    0.0000 O.3     1  UNL1       -0.5065
      2 C           4.2690    0.2500    0.0000 C.3     1  UNL1       -0.0183
      3 C           5.1350    0.7500    0.0000 C.3     1  UNL1       -0.0430
      4 C           4.2690   -0.7500    0.0000 C.ar    1  UNL1       -0.0411
      5 C           5.1350    1.7500    0.0000 C.3     1  UNL1       -0.0340
      6 C           3.4030    0.7500    0.0000 C.3     1  UNL1       -0.0584
      7 C           3.4030   -1.2500    0.0000 C.ar    1  UNL1       -0.0165
      8 C           5.1350   -1.2500    0.0000 C.ar    1  UNL1       -0.0578
      9 C           6.0010    2.2500    0.0000 C.2     1  UNL1       -0.0853
     10 C           3.4030   -2.2500    0.0000 C.ar    1  UNL1        0.1200
     11 C           4.2690   -2.7500    0.0000 C.ar    1  UNL1       -0.0090
     12 C           5.1350   -2.2500    0.0000 C.ar    1  UNL1       -0.0551
     13 C           6.0010    3.2500    0.0000 C.2     1  UNL1       -0.0796
     14 C           4.2690   -3.7500    0.0000 C.3     1  UNL1       -0.0363
     15 C           6.8671    3.7500    0.0000 C.3     1  UNL1       -0.0440
     16 C           5.1350    3.7500    0.0000 C.3     1  UNL1       -0.0440
     17 H           4.2690    0.8700    0.0000 H       1  UNL1        0.0346
     18 H           5.3471    0.1674    0.0000 H       1  UNL1        0.0274
     19 H           5.7456    0.8577    0.0000 H       1  UNL1        0.0274
     20 H           4.9230    2.3326    0.0000 H       1  UNL1        0.0308
     21 H           4.5244    1.6423    0.0000 H       1  UNL1        0.0308
     22 H           3.7130    1.2869    0.0000 H       1  UNL1        0.0236
     23 H           2.8660    1.0600    0.0000 H       1  UNL1        0.0236
     24 H           3.0930    0.2131    0.0000 H       1  UNL1        0.0236
     25 H           2.8660   -0.9400    0.0000 H       1  UNL1        0.0657
     26 H           5.6720   -0.9400    0.0000 H       1  UNL1        0.0620
     27 H           6.5380    1.9400    0.0000 H       1  UNL1        0.0571
     28 H           5.6720   -2.5600    0.0000 H       1  UNL1        0.0621
     29 H           3.6490   -3.7500    0.0000 H       1  UNL1        0.0279
     30 H           4.2690   -4.3700    0.0000 H       1  UNL1        0.0279
     31 H           4.8890   -3.7500    0.0000 H       1  UNL1        0.0279
     32 H           7.1771    3.2131    0.0000 H       1  UNL1        0.0274
     33 H           7.4040    4.0600    0.0000 H       1  UNL1        0.0274
     34 H           6.5571    4.2869    0.0000 H       1  UNL1        0.0274
     35 H           5.4450    4.2869    0.0000 H       1  UNL1        0.0274
     36 H           4.5981    4.0600    0.0000 H       1  UNL1        0.0274
     37 H           4.8250    3.2131    0.0000 H       1  UNL1        0.0274
     38 H           2.0000   -2.4400    0.0000 H       1  UNL1        0.2921
@<TRIPOS>BOND
     1     1    10    1
     2     1    38    1
     3     2     3    1
     4     2     4    1
     5     2     6    1
     6     2    17    1
     7     3     5    1
     8     3    18    1
     9     3    19    1
    10     4     7   ar
    11     4     8   ar
    12     5     9    1
    13     5    20    1
    14     5    21    1
    15     6    22    1
    16     6    23    1
    17     6    24    1
    18     7    10   ar
    19     7    25    1
    20     8    12   ar
    21     8    26    1
    22     9    13    2
    23     9    27    1
    24    10    11   ar
    25    11    12   ar
    26    11    14    1
    27    12    28    1
    28    13    15    1
    29    13    16    1
    30    14    29    1
    31    14    30    1
    32    14    31    1
    33    15    32    1
    34    15    33    1
    35    15    34    1
    36    16    35    1
    37    16    36    1
    38    16    37    1
