@<TRIPOS>MOLECULE
IMPHY000190
 148 155 0 0 0
SMALL
GASTEIGER

@<TRIPOS>ATOM
      1 O          18.3185    1.8572    0.0000 O.3     1  UNL1       -0.3601
      2 O          17.4387   -1.6399    0.0000 O.3     1  UNL1       -0.4537
      3 O          15.7105   -0.6332    0.0000 O.3     1  UNL1       -0.4539
      4 O          12.9292    2.9299    0.0000 O.3     1  UNL1       -0.3480
      5 O          19.7874   -2.1000    0.0000 O.2     1  UNL1       -0.2974
      6 O          18.9354   -2.5117    0.0000 O.2     1  UNL1       -0.2453
      7 O          16.5708   -2.1365    0.0000 O.2     1  UNL1       -0.2453
      8 O          11.1972    2.9299    0.0000 O.3     1  UNL1       -0.3456
      9 O          11.1972   -0.0701    0.0000 O.3     1  UNL1       -0.3770
     10 O           9.4651    0.9299    0.0000 O.3     1  UNL1       -0.3403
     11 O           8.5991    2.4299    0.0000 O.3     1  UNL1       -0.3431
     12 O           7.7331   -0.0701    0.0000 O.3     1  UNL1       -0.3841
     13 O           6.0010    0.9299    0.0000 O.3     1  UNL1       -0.3744
     14 O           6.0010    2.9299    0.0000 O.3     1  UNL1       -0.3402
     15 O           5.1350    1.4299    0.0000 O.3     1  UNL1       -0.3405
     16 O           4.2690    3.9299    0.0000 O.3     1  UNL1       -0.3841
     17 O           2.5369    2.9299    0.0000 O.3     1  UNL1       -0.3864
     18 O           2.5369    0.9299    0.0000 O.3     1  UNL1       -0.3865
     19 O           3.4030   -0.5701    0.0000 O.3     1  UNL1       -0.3924
     20 C          18.3144    0.8568    0.0000 C.3     1  UNL1        0.1090
     21 C          17.4503    1.3601    0.0000 C.3     1  UNL1        0.1066
     22 C          18.3105   -0.1432    0.0000 C.3     1  UNL1        0.0496
     23 C          16.5823    0.8634    0.0000 C.3     1  UNL1        0.0372
     24 C          15.6743    1.3738    0.0000 C.3     1  UNL1       -0.0200
     25 C          19.2618    1.1578    0.0000 C.3     1  UNL1       -0.0197
     26 C          17.4426   -0.6399    0.0000 C.3     1  UNL1        0.1491
     27 C          17.4704    2.4015    0.0000 C.3     1  UNL1       -0.0203
     28 C          16.5785   -0.1366    0.0000 C.3     1  UNL1        0.1467
     29 C          19.2556   -0.4516    0.0000 C.3     1  UNL1        0.0289
     30 C          15.6703    2.4154    0.0000 C.3     1  UNL1       -0.0327
     31 C          19.8423    0.3509    0.0000 C.3     1  UNL1       -0.0401
     32 C          16.5744    2.9328    0.0000 C.3     1  UNL1       -0.0469
     33 C          18.3067   -1.1432    0.0000 C.3     1  UNL1       -0.0527
     34 C          14.7453    0.8133    0.0000 C.3     1  UNL1       -0.0446
     35 C          15.6782    0.3738    0.0000 C.3     1  UNL1       -0.0588
     36 C          14.7370    2.9687    0.0000 C.3     1  UNL1       -0.0232
     37 C          13.7994    1.3449    0.0000 C.3     1  UNL1       -0.0260
     38 C          19.9973   -1.1223    0.0000 C.2     1  UNL1        0.1341
     39 C          13.7953    2.4299    0.0000 C.3     1  UNL1        0.0620
     40 C          20.9490   -0.8153    0.0000 C.3     1  UNL1       -0.0058
     41 C          17.9354   -2.5078    0.0000 C.2     1  UNL1        0.3350
     42 C          15.7067   -1.6332    0.0000 C.2     1  UNL1        0.3350
     43 C          12.0632    2.4299    0.0000 C.3     1  UNL1        0.1624
     44 C          17.4320   -3.3719    0.0000 C.2     1  UNL1        0.0293
     45 C          14.8387   -2.1299    0.0000 C.2     1  UNL1        0.0293
     46 C          12.0632    1.4299    0.0000 C.3     1  UNL1        0.0272
     47 C          17.9287   -4.2399    0.0000 C.3     1  UNL1       -0.0333
     48 C          14.8349   -3.1299    0.0000 C.3     1  UNL1       -0.0333
     49 C          16.4321   -3.3681    0.0000 C.2     1  UNL1       -0.0774
     50 C          13.9746   -1.6265    0.0000 C.2     1  UNL1       -0.0774
     51 C          11.1972    0.9299    0.0000 C.3     1  UNL1        0.0915
     52 C          10.3312    2.4299    0.0000 C.3     1  UNL1        0.0875
     53 C          10.3312    1.4299    0.0000 C.3     1  UNL1        0.1138
     54 C          15.9288   -4.2322    0.0000 C.3     1  UNL1       -0.0461
     55 C          13.1067   -2.1232    0.0000 C.3     1  UNL1       -0.0461
     56 C           9.4651    2.9299    0.0000 C.3     1  UNL1       -0.0361
     57 C          12.0632   -0.5701    0.0000 C.3     1  UNL1        0.0369
     58 C           8.5991    1.4299    0.0000 C.3     1  UNL1        0.1883
     59 C           7.7331    0.9299    0.0000 C.3     1  UNL1        0.1344
     60 C           6.8671    1.4299    0.0000 C.3     1  UNL1        0.1174
     61 C           7.7331    2.9299    0.0000 C.3     1  UNL1        0.0877
     62 C           6.8671    2.4299    0.0000 C.3     1  UNL1        0.1162
     63 C           7.7331    3.9299    0.0000 C.3     1  UNL1       -0.0360
     64 C           5.1350    2.4299    0.0000 C.3     1  UNL1        0.1884
     65 C           6.0010   -0.0701    0.0000 C.3     1  UNL1        0.0370
     66 C           4.2690    2.9299    0.0000 C.3     1  UNL1        0.1341
     67 C           3.4030    2.4299    0.0000 C.3     1  UNL1        0.1141
     68 C           4.2690    0.9299    0.0000 C.3     1  UNL1        0.1130
     69 C           3.4030    1.4299    0.0000 C.3     1  UNL1        0.1119
     70 C           4.2690   -0.0701    0.0000 C.3     1  UNL1        0.0730
     71 H          17.3168    0.4356    0.0000 H       1  UNL1        0.0372
     72 H          19.8003    1.4650    0.0000 H       1  UNL1        0.0294
     73 H          19.0129    1.7257    0.0000 H       1  UNL1        0.0294
     74 H          16.9044   -0.9478    0.0000 H       1  UNL1        0.0778
     75 H          18.0791    2.2837    0.0000 H       1  UNL1        0.0294
     76 H          17.6906    2.9811    0.0000 H       1  UNL1        0.0294
     77 H          16.0427    0.1755    0.0000 H       1  UNL1        0.0776
     78 H          18.9447   -0.9880    0.0000 H       1  UNL1        0.0385
     79 H          15.6768    3.2654    0.0000 H       1  UNL1        0.0307
     80 H          20.3015   -0.0656    0.0000 H       1  UNL1        0.0273
     81 H          20.3047    0.7638    0.0000 H       1  UNL1        0.0273
     82 H          16.9771    3.4041    0.0000 H       1  UNL1        0.0269
     83 H          16.1789    3.4102    0.0000 H       1  UNL1        0.0269
     84 H          17.6867   -1.1408    0.0000 H       1  UNL1        0.0237
     85 H          18.3043   -1.7632    0.0000 H       1  UNL1        0.0237
     86 H          18.9267   -1.1456    0.0000 H       1  UNL1        0.0237
     87 H          14.3535    0.3328    0.0000 H       1  UNL1        0.0272
     88 H          15.1517    0.3451    0.0000 H       1  UNL1        0.0272
     89 H          15.0582    0.3714    0.0000 H       1  UNL1        0.0235
     90 H          15.6805   -0.2462    0.0000 H       1  UNL1        0.0235
     91 H          16.2981    0.3762    0.0000 H       1  UNL1        0.0235
     92 H          15.1398    3.4401    0.0000 H       1  UNL1        0.0293
     93 H          14.3415    3.4462    0.0000 H       1  UNL1        0.0293
     94 H          13.1882    1.4486    0.0000 H       1  UNL1        0.0290
     95 H          13.5926    0.7604    0.0000 H       1  UNL1        0.0290
     96 H          13.2589    2.1188    0.0000 H       1  UNL1        0.0597
     97 H          21.1393   -1.4054    0.0000 H       1  UNL1        0.0306
     98 H          21.5391   -0.6250    0.0000 H       1  UNL1        0.0306
     99 H          20.7587   -0.2253    0.0000 H       1  UNL1        0.0306
    100 H          12.0632    3.0499    0.0000 H       1  UNL1        0.0910
    101 H          12.2753    0.8473    0.0000 H       1  UNL1        0.0340
    102 H          12.6738    1.5375    0.0000 H       1  UNL1        0.0340
    103 H          17.3906   -4.5478    0.0000 H       1  UNL1        0.0280
    104 H          18.2366   -4.7780    0.0000 H       1  UNL1        0.0280
    105 H          18.4668   -3.9319    0.0000 H       1  UNL1        0.0280
    106 H          14.2149   -3.1275    0.0000 H       1  UNL1        0.0280
    107 H          14.8325   -3.7498    0.0000 H       1  UNL1        0.0280
    108 H          15.4549   -3.1322    0.0000 H       1  UNL1        0.0280
    109 H          16.1242   -2.8300    0.0000 H       1  UNL1        0.0574
    110 H          13.9770   -1.0065    0.0000 H       1  UNL1        0.0574
    111 H          11.7341    0.6199    0.0000 H       1  UNL1        0.0624
    112 H          10.3312    3.0499    0.0000 H       1  UNL1        0.0621
    113 H           9.7942    1.7399    0.0000 H       1  UNL1        0.0649
    114 H          15.3931   -3.9201    0.0000 H       1  UNL1        0.0272
    115 H          15.6167   -4.7679    0.0000 H       1  UNL1        0.0272
    116 H          16.4645   -4.5443    0.0000 H       1  UNL1        0.0272
    117 H          12.7988   -1.5851    0.0000 H       1  UNL1        0.0272
    118 H          12.5686   -2.4311    0.0000 H       1  UNL1        0.0272
    119 H          13.4146   -2.6613    0.0000 H       1  UNL1        0.0272
    120 H           9.7751    3.4668    0.0000 H       1  UNL1        0.0255
    121 H           8.9282    3.2399    0.0000 H       1  UNL1        0.0255
    122 H           9.1551    2.3929    0.0000 H       1  UNL1        0.0255
    123 H          11.7532   -1.1071    0.0000 H       1  UNL1        0.0524
    124 H          12.6002   -0.8801    0.0000 H       1  UNL1        0.0524
    125 H          12.3732   -0.0332    0.0000 H       1  UNL1        0.0524
    126 H           8.5991    0.8099    0.0000 H       1  UNL1        0.0938
    127 H           7.1962    0.6199    0.0000 H       1  UNL1        0.0671
    128 H           6.3301    1.7399    0.0000 H       1  UNL1        0.0650
    129 H           8.2700    3.2399    0.0000 H       1  UNL1        0.0621
    130 H           6.8671    3.0499    0.0000 H       1  UNL1        0.0650
    131 H           8.2700   -0.3801    0.0000 H       1  UNL1        0.2101
    132 H           8.3531    3.9299    0.0000 H       1  UNL1        0.0255
    133 H           7.7331    4.5499    0.0000 H       1  UNL1        0.0255
    134 H           7.1131    3.9299    0.0000 H       1  UNL1        0.0255
    135 H           5.1350    3.0499    0.0000 H       1  UNL1        0.0938
    136 H           5.3810   -0.0701    0.0000 H       1  UNL1        0.0524
    137 H           6.0010   -0.6901    0.0000 H       1  UNL1        0.0524
    138 H           6.6210   -0.0701    0.0000 H       1  UNL1        0.0524
    139 H           3.7320    3.2399    0.0000 H       1  UNL1        0.0671
    140 H           3.9650    3.0499    0.0000 H       1  UNL1        0.0648
    141 H           4.8059    0.6199    0.0000 H       1  UNL1        0.0647
    142 H           3.4030    0.8099    0.0000 H       1  UNL1        0.0647
    143 H           3.7320    4.2399    0.0000 H       1  UNL1        0.2101
    144 H           4.4810   -0.6527    0.0000 H       1  UNL1        0.0584
    145 H           4.8796    0.0375    0.0000 H       1  UNL1        0.0584
    146 H           2.0000    2.6199    0.0000 H       1  UNL1        0.2100
    147 H           2.0000    1.2399    0.0000 H       1  UNL1        0.2100
    148 H           3.4030   -1.1901    0.0000 H       1  UNL1        0.2095
@<TRIPOS>BOND
     1    20     1    1
     2    21     1    1
     3    26     2    1
     4     2    41    1
     5    28     3    1
     6     3    42    1
     7    39     4    1
     8    43     4    1
     9     5    38    2
    10     6    41    2
    11     7    42    2
    12     8    43    1
    13     8    52    1
    14    51     9    1
    15     9    57    1
    16    53    10    1
    17    58    10    1
    18    11    58    1
    19    11    61    1
    20    59    12    1
    21    12   131    1
    22    60    13    1
    23    13    65    1
    24    62    14    1
    25    64    14    1
    26    15    64    1
    27    15    68    1
    28    66    16    1
    29    16   143    1
    30    67    17    1
    31    17   146    1
    32    69    18    1
    33    18   147    1
    34    19    70    1
    35    19   148    1
    36    20    21    1
    37    20    22    1
    38    20    25    1
    39    21    23    1
    40    21    27    1
    41    22    26    1
    42    22    29    1
    43    22    33    1
    44    23    24    1
    45    23    28    1
    46    23    71    1
    47    24    30    1
    48    24    34    1
    49    24    35    1
    50    25    31    1
    51    25    72    1
    52    25    73    1
    53    26    28    1
    54    26    74    1
    55    27    32    1
    56    27    75    1
    57    27    76    1
    58    28    77    1
    59    29    31    1
    60    29    38    1
    61    29    78    1
    62    30    32    1
    63    30    36    1
    64    30    79    1
    65    31    80    1
    66    31    81    1
    67    32    82    1
    68    32    83    1
    69    33    84    1
    70    33    85    1
    71    33    86    1
    72    34    37    1
    73    34    87    1
    74    34    88    1
    75    35    89    1
    76    35    90    1
    77    35    91    1
    78    36    39    1
    79    36    92    1
    80    36    93    1
    81    37    39    1
    82    37    94    1
    83    37    95    1
    84    38    40    1
    85    39    96    1
    86    40    97    1
    87    40    98    1
    88    40    99    1
    89    41    44    1
    90    42    45    1
    91    43    46    1
    92    43   100    1
    93    44    47    1
    94    44    49    2
    95    45    48    1
    96    45    50    2
    97    46    51    1
    98    46   101    1
    99    46   102    1
   100    47   103    1
   101    47   104    1
   102    47   105    1
   103    48   106    1
   104    48   107    1
   105    48   108    1
   106    49    54    1
   107    49   109    1
   108    50    55    1
   109    50   110    1
   110    51    53    1
   111    51   111    1
   112    52    53    1
   113    52    56    1
   114    52   112    1
   115    53   113    1
   116    54   114    1
   117    54   115    1
   118    54   116    1
   119    55   117    1
   120    55   118    1
   121    55   119    1
   122    56   120    1
   123    56   121    1
   124    56   122    1
   125    57   123    1
   126    57   124    1
   127    57   125    1
   128    58    59    1
   129    58   126    1
   130    59    60    1
   131    59   127    1
   132    60    62    1
   133    60   128    1
   134    61    62    1
   135    61    63    1
   136    61   129    1
   137    62   130    1
   138    63   132    1
   139    63   133    1
   140    63   134    1
   141    64    66    1
   142    64   135    1
   143    65   136    1
   144    65   137    1
   145    65   138    1
   146    66    67    1
   147    66   139    1
   148    67    69    1
   149    67   140    1
   150    68    69    1
   151    68    70    1
   152    68   141    1
   153    69   142    1
   154    70   144    1
   155    70   145    1
