@<TRIPOS>MOLECULE
IMPHY007157
 39 40 0 0 0
SMALL
GASTEIGER

@<TRIPOS>ATOM
      1 O           2.5369    0.7327    0.0000 O.3     1  UNL1       -0.4773
      2 O           3.4030   -0.7673    0.0000 O.2     1  UNL1       -0.2455
      3 C           6.8671   -0.7673    0.0000 C.3     1  UNL1       -0.0255
      4 C           6.8671    0.2327    0.0000 C.3     1  UNL1       -0.0142
      5 C           6.0010   -1.2673    0.0000 C.3     1  UNL1       -0.0465
      6 C           6.0010    0.7327    0.0000 C.3     1  UNL1       -0.0390
      7 C           7.7610   -1.3020    0.0000 C.3     1  UNL1       -0.0468
      8 C           5.1350    0.2327    0.0000 C.3     1  UNL1       -0.0091
      9 C           5.1350   -0.7673    0.0000 C.3     1  UNL1       -0.0455
     10 C           7.7610    0.7674    0.0000 C.2     1  UNL1       -0.0730
     11 C           8.6671   -0.7881    0.0000 C.3     1  UNL1       -0.0489
     12 C           6.8671   -1.7673    0.0000 C.3     1  UNL1       -0.0590
     13 C           8.6671    0.2535    0.0000 C.3     1  UNL1       -0.0317
     14 C           4.2690    0.7327    0.0000 C.2     1  UNL1        0.0324
     15 C           7.7494    1.7673    0.0000 C.2     1  UNL1       -0.0992
     16 C           3.4030    0.2327    0.0000 C.2     1  UNL1        0.3325
     17 C           4.2690    1.7327    0.0000 C.2     1  UNL1       -0.0885
     18 H           6.8605    1.0827    0.0000 H       1  UNL1        0.0351
     19 H           5.6025   -1.7422    0.0000 H       1  UNL1        0.0271
     20 H           6.3996   -1.7422    0.0000 H       1  UNL1        0.0271
     21 H           6.3996    1.2076    0.0000 H       1  UNL1        0.0277
     22 H           5.6025    1.2076    0.0000 H       1  UNL1        0.0277
     23 H           7.3564   -1.7718    0.0000 H       1  UNL1        0.0271
     24 H           8.1546   -1.7810    0.0000 H       1  UNL1        0.0271
     25 H           5.1350    0.8527    0.0000 H       1  UNL1        0.0351
     26 H           4.5244   -0.6596    0.0000 H       1  UNL1        0.0271
     27 H           4.9230   -1.3499    0.0000 H       1  UNL1        0.0271
     28 H           8.8761   -1.3718    0.0000 H       1  UNL1        0.0268
     29 H           9.2779   -0.6820    0.0000 H       1  UNL1        0.0268
     30 H           6.2471   -1.7673    0.0000 H       1  UNL1        0.0235
     31 H           6.8671   -2.3873    0.0000 H       1  UNL1        0.0235
     32 H           7.4871   -1.7673    0.0000 H       1  UNL1        0.0235
     33 H           9.2779    0.1474    0.0000 H       1  UNL1        0.0310
     34 H           8.8761    0.8372    0.0000 H       1  UNL1        0.0310
     35 H           8.2828    2.0835    0.0000 H       1  UNL1        0.0534
     36 H           7.2090    2.0711    0.0000 H       1  UNL1        0.0534
     37 H           4.8059    2.0427    0.0000 H       1  UNL1        0.0540
     38 H           3.7320    2.0427    0.0000 H       1  UNL1        0.0540
     39 H           2.0000    0.4227    0.0000 H       1  UNL1        0.2954
@<TRIPOS>BOND
     1     1    16    1
     2     1    39    1
     3     2    16    2
     4     3     4    1
     5     3     5    1
     6     3     7    1
     7     3    12    1
     8     4     6    1
     9     4    10    1
    10     4    18    1
    11     5     9    1
    12     5    19    1
    13     5    20    1
    14     6     8    1
    15     6    21    1
    16     6    22    1
    17     7    11    1
    18     7    23    1
    19     7    24    1
    20     8     9    1
    21     8    14    1
    22     8    25    1
    23     9    26    1
    24     9    27    1
    25    10    13    1
    26    10    15    2
    27    11    13    1
    28    11    28    1
    29    11    29    1
    30    12    30    1
    31    12    31    1
    32    12    32    1
    33    13    33    1
    34    13    34    1
    35    14    16    1
    36    14    17    2
    37    15    35    1
    38    15    36    1
    39    17    37    1
    40    17    38    1
