@<TRIPOS>MOLECULE
IMPHY010638
 27 30 0 0 0
SMALL
GASTEIGER

@<TRIPOS>ATOM
      1 O           1.6291   -1.3346    0.0000 O.2     1  UNL1       -0.4722
      2 C           1.2241   -2.5956    0.0000 C.2     1  UNL1        0.1756
      3 C           2.3010   -3.3687    0.0000 C.2     1  UNL1        0.0810
      4 C           3.3779   -2.5956    0.0000 C.2     1  UNL1        0.2120
      5 C           2.9637   -1.3346    0.0000 C.3     1  UNL1        0.1878
      6 C           2.3010   -4.7033    0.0000 C.ar    1  UNL1        0.0745
      7 C           3.4607   -5.3752    0.0000 C.ar    1  UNL1        0.1513
      8 O           4.6113   -4.7033    0.0000 O.2     1  UNL1       -0.4532
      9 C           5.7618   -5.3752    0.0000 C.ar    1  UNL1        0.1484
     10 C           5.7618   -6.7006    0.0000 C.ar    1  UNL1        0.0796
     11 C           4.6113   -7.3633    0.0000 C.ar    1  UNL1        0.2016
     12 C           3.4607   -6.7006    0.0000 C.ar    1  UNL1        0.0737
     13 C           2.3010   -7.3633    0.0000 C.ar    1  UNL1        0.0094
     14 C           1.1505   -6.7006    0.0000 C.ar    1  UNL1        0.0372
     15 C           1.1505   -5.3752    0.0000 C.ar    1  UNL1        0.1418
     16 O           4.6481   -3.0005    0.0000 O.2     1  UNL1       -0.2876
     17 C           4.1787   -0.7916    0.0000 C.3     1  UNL1        0.0517
     18 C           2.9637    0.0000    0.0000 C.3     1  UNL1        0.0517
     19 C           6.9031   -4.7033    0.0000 C.ar    1  UNL1        0.0347
     20 C           6.9031   -3.3687    0.0000 C.ar    1  UNL1        0.0030
     21 C           8.0536   -2.7152    0.0000 C.ar    1  UNL1        0.0001
     22 C           9.2041   -3.3687    0.0000 C.ar    1  UNL1        0.0000
     23 C           9.2041   -4.7033    0.0000 C.ar    1  UNL1        0.0001
     24 C           8.0536   -5.3752    0.0000 C.ar    1  UNL1        0.0030
     25 O           4.6113   -8.6887    0.0000 O.2     1  UNL1       -0.2864
     26 O           0.0000   -4.7033    0.0000 O.3     1  UNL1       -0.4713
     27 C           0.0000   -3.3687    0.0000 C.3     1  UNL1        0.2525
@<TRIPOS>BOND
     1     1     2    1
     2     1     5    1
     3     2     3    2
     4     3     6    1
     5     3     4    1
     6     4     5    1
     7     4    16    2
     8     5    18    1
     9     5    17    1
    10     6     7   ar
    11     6    15   ar
    12     7     8   ar
    13     7    12   ar
    14     8     9   ar
    15     9    10   ar
    16     9    19    1
    17    10    11   ar
    18    11    12   ar
    19    11    25    2
    20    12    13   ar
    21    13    14   ar
    22    14    15   ar
    23    15    26    1
    24    19    20   ar
    25    19    24   ar
    26    20    21   ar
    27    21    22   ar
    28    22    23   ar
    29    23    24   ar
    30    26    27    1
