@<TRIPOS>MOLECULE
IMPHY004762
 68 72 0 0 0
SMALL
GASTEIGER

@<TRIPOS>ATOM
      1 O          11.1972   -1.0000    0.0000 O.3     1  UNL1       -0.3598
      2 O           8.5991   -0.5000    0.0000 O.3     1  UNL1       -0.4526
      3 O           8.5991   -2.5000    0.0000 O.3     1  UNL1       -0.3854
      4 O          10.3312   -3.5000    0.0000 O.3     1  UNL1       -0.3865
      5 O          12.0632   -3.5000    0.0000 O.3     1  UNL1       -0.3924
      6 O          12.0911    0.4653    0.0000 O.2     1  UNL1       -0.4540
      7 O           8.5991    0.5000    0.0000 O.3     1  UNL1       -0.5062
      8 O          10.3312    3.5000    0.0000 O.3     1  UNL1       -0.5058
      9 O           7.7331   -2.0000    0.0000 O.2     1  UNL1       -0.2456
     10 O          12.0796    3.5346    0.0000 O.2     1  UNL1       -0.2869
     11 O          16.4536   -1.0341    0.0000 O.3     1  UNL1       -0.5068
     12 O           2.5369    1.0000    0.0000 O.3     1  UNL1       -0.5068
     13 C           9.4651   -1.0000    0.0000 C.3     1  UNL1        0.1618
     14 C           9.4651   -2.0000    0.0000 C.3     1  UNL1        0.1231
     15 C          10.3312   -0.5000    0.0000 C.3     1  UNL1        0.1304
     16 C          10.3312   -2.5000    0.0000 C.3     1  UNL1        0.1128
     17 C          11.1972   -2.0000    0.0000 C.3     1  UNL1        0.1109
     18 C          10.3312    0.5000    0.0000 C.ar    1  UNL1        0.0693
     19 C          12.0632   -2.5000    0.0000 C.3     1  UNL1        0.0729
     20 C          11.1972    1.0000    0.0000 C.ar    1  UNL1        0.1520
     21 C           9.4651    1.0000    0.0000 C.ar    1  UNL1        0.1296
     22 C          11.1972    2.0000    0.0000 C.ar    1  UNL1        0.1058
     23 C           9.4651    2.0000    0.0000 C.ar    1  UNL1        0.0226
     24 C          10.3312    2.5000    0.0000 C.ar    1  UNL1        0.1347
     25 C           7.7331   -1.0000    0.0000 C.2     1  UNL1        0.3324
     26 C          12.0911    2.5347    0.0000 C.ar    1  UNL1        0.1966
     27 C          12.9972    0.9792    0.0000 C.ar    1  UNL1        0.1392
     28 C          12.9972    2.0208    0.0000 C.ar    1  UNL1        0.0288
     29 C           6.8671   -0.5000    0.0000 C.2     1  UNL1        0.0231
     30 C          13.8613    0.4758    0.0000 C.ar    1  UNL1        0.0176
     31 C           6.0010   -1.0000    0.0000 C.2     1  UNL1       -0.0478
     32 C          13.8574   -0.5241    0.0000 C.ar    1  UNL1       -0.0476
     33 C          14.7292    0.9725    0.0000 C.ar    1  UNL1       -0.0476
     34 C           5.1350   -0.5000    0.0000 C.ar    1  UNL1       -0.0246
     35 C          14.7215   -1.0275    0.0000 C.ar    1  UNL1       -0.0195
     36 C          15.5933    0.4692    0.0000 C.ar    1  UNL1       -0.0195
     37 C          15.5895   -0.5308    0.0000 C.ar    1  UNL1        0.1169
     38 C           5.1350    0.5000    0.0000 C.ar    1  UNL1       -0.0511
     39 C           4.2690   -1.0000    0.0000 C.ar    1  UNL1       -0.0511
     40 C           4.2690    1.0000    0.0000 C.ar    1  UNL1       -0.0196
     41 C           3.4030   -0.5000    0.0000 C.ar    1  UNL1       -0.0196
     42 C           3.4030    0.5000    0.0000 C.ar    1  UNL1        0.1169
     43 H           9.4651   -0.3800    0.0000 H       1  UNL1        0.0791
     44 H           9.4651   -2.6200    0.0000 H       1  UNL1        0.0658
     45 H          11.0673   -0.0750    0.0000 H       1  UNL1        0.0687
     46 H          10.8681   -2.8100    0.0000 H       1  UNL1        0.0647
     47 H          11.7341   -1.6900    0.0000 H       1  UNL1        0.0646
     48 H          12.6738   -2.6077    0.0000 H       1  UNL1        0.0584
     49 H          12.2753   -1.9174    0.0000 H       1  UNL1        0.0584
     50 H           8.5991   -3.1200    0.0000 H       1  UNL1        0.2101
     51 H           9.7942   -3.8100    0.0000 H       1  UNL1        0.2100
     52 H           8.9282    2.3100    0.0000 H       1  UNL1        0.0691
     53 H          12.6002   -3.8100    0.0000 H       1  UNL1        0.2095
     54 H           8.0622    0.8100    0.0000 H       1  UNL1        0.2922
     55 H          13.5329    2.3329    0.0000 H       1  UNL1        0.0693
     56 H           6.8671    0.1200    0.0000 H       1  UNL1        0.0689
     57 H           9.7942    3.8100    0.0000 H       1  UNL1        0.2922
     58 H           6.0010   -1.6200    0.0000 H       1  UNL1        0.0626
     59 H          13.3193   -0.8321    0.0000 H       1  UNL1        0.0626
     60 H          14.7316    1.5925    0.0000 H       1  UNL1        0.0626
     61 H          14.7191   -1.6475    0.0000 H       1  UNL1        0.0654
     62 H          16.1315    0.7771    0.0000 H       1  UNL1        0.0654
     63 H           5.6720    0.8100    0.0000 H       1  UNL1        0.0625
     64 H           4.2690   -1.6200    0.0000 H       1  UNL1        0.0625
     65 H           4.2690    1.6200    0.0000 H       1  UNL1        0.0654
     66 H           2.8660   -0.8100    0.0000 H       1  UNL1        0.0654
     67 H          16.9917   -0.7262    0.0000 H       1  UNL1        0.2921
     68 H           2.0000    0.6900    0.0000 H       1  UNL1        0.2921
@<TRIPOS>BOND
     1     1    15    1
     2     1    17    1
     3     2    13    1
     4     2    25    1
     5    14     3    1
     6     3    50    1
     7    16     4    1
     8     4    51    1
     9     5    19    1
    10     5    53    1
    11     6    20   ar
    12     6    27   ar
    13     7    21    1
    14     7    54    1
    15     8    24    1
    16     8    57    1
    17     9    25    2
    18    10    26    2
    19    11    37    1
    20    11    67    1
    21    12    42    1
    22    12    68    1
    23    13    14    1
    24    13    15    1
    25    13    43    1
    26    14    16    1
    27    14    44    1
    28    15    18    1
    29    15    45    1
    30    16    17    1
    31    16    46    1
    32    17    19    1
    33    17    47    1
    34    18    20   ar
    35    18    21   ar
    36    19    48    1
    37    19    49    1
    38    20    22   ar
    39    21    23   ar
    40    22    24   ar
    41    22    26   ar
    42    23    24   ar
    43    23    52    1
    44    25    29    1
    45    26    28   ar
    46    27    28   ar
    47    27    30    1
    48    28    55    1
    49    29    31    2
    50    29    56    1
    51    30    32   ar
    52    30    33   ar
    53    31    34    1
    54    31    58    1
    55    32    35   ar
    56    32    59    1
    57    33    36   ar
    58    33    60    1
    59    34    38   ar
    60    34    39   ar
    61    35    37   ar
    62    35    61    1
    63    36    37   ar
    64    36    62    1
    65    38    40   ar
    66    38    63    1
    67    39    41   ar
    68    39    64    1
    69    40    42   ar
    70    40    65    1
    71    41    42   ar
    72    41    66    1
