@<TRIPOS>MOLECULE
IMPHY005687
 89 95 0 0 0
SMALL
GASTEIGER

@<TRIPOS>ATOM
      1 O           7.3395   -0.9129    0.0000 O.3     1  UNL1       -0.4547
      2 O           5.2064   -2.1372    0.0000 O.3     1  UNL1       -0.3790
      3 O           3.9993    1.6800    0.0000 O.3     1  UNL1       -0.3791
      4 O           7.7157    1.4285    0.0000 O.3     1  UNL1       -0.4544
      5 O           6.1245    2.9919    0.0000 O.3     1  UNL1       -0.3822
      6 O           8.1286   -0.4717    0.0000 O.3     1  UNL1       -0.3851
      7 O           8.1170    2.1380    0.0000 O.3     1  UNL1       -0.3741
      8 O           3.1333   -2.5551    0.0000 O.3     1  UNL1       -0.3824
      9 O           6.0831   -2.1052    0.0000 O.2     1  UNL1       -0.2511
     10 O           8.9435    0.2068    0.0000 O.2     1  UNL1       -0.2449
     11 N           2.8040   -0.1490    0.0000 N.3     1  UNL1       -0.3007
     12 C           4.7506    0.2462    0.0000 C.3     1  UNL1        0.0221
     13 C           4.7506   -0.6213    0.0000 C.3     1  UNL1        0.0043
     14 C           5.4289    0.7872    0.0000 C.3     1  UNL1       -0.0184
     15 C           3.7487    0.1402    0.0000 C.3     1  UNL1        0.0277
     16 C           6.2748   -0.9692    0.0000 C.3     1  UNL1        0.0446
     17 C           6.2748    0.5941    0.0000 C.3     1  UNL1        0.0454
     18 C           6.6512   -0.1876    0.0000 C.3     1  UNL1        0.1547
     19 C           5.4289   -1.1623    0.0000 C.3     1  UNL1        0.0704
     20 C           3.9993   -1.0551    0.0000 C.3     1  UNL1        0.0127
     21 C           3.9993    0.6800    0.0000 C.3     1  UNL1        0.0660
     22 C           5.3512    1.6512    0.0000 C.3     1  UNL1       -0.0140
     23 C           6.1489    1.9922    0.0000 C.3     1  UNL1        0.1318
     24 C           6.7198    1.3389    0.0000 C.3     1  UNL1        0.1412
     25 C           7.2961    0.0824    0.0000 C.3     1  UNL1        0.1244
     26 C           2.8040   -0.9009    0.0000 C.3     1  UNL1        0.0070
     27 C           7.2961    1.5669    0.0000 C.3     1  UNL1        0.1199
     28 C           3.2480   -0.6213    0.0000 C.3     1  UNL1       -0.0414
     29 C           3.2480    0.2462    0.0000 C.3     1  UNL1       -0.0254
     30 C           3.9993   -2.0551    0.0000 C.3     1  UNL1        0.0544
     31 C           2.0000    0.4457    0.0000 C.3     1  UNL1       -0.0124
     32 C           7.0555   -1.8718    0.0000 C.2     1  UNL1        0.3046
     33 C           5.9395   -2.8174    0.0000 C.3     1  UNL1        0.0368
     34 C           3.1333    2.1800    0.0000 C.3     1  UNL1        0.0368
     35 C           8.6823    1.1721    0.0000 C.2     1  UNL1        0.3395
     36 C           8.0328    3.1344    0.0000 C.3     1  UNL1        0.0370
     37 C           7.7438   -2.5972    0.0000 C.3     1  UNL1        0.0333
     38 C           3.1333   -3.5551    0.0000 C.3     1  UNL1        0.0365
     39 C           9.3876    1.8810    0.0000 C.ar    1  UNL1        0.0590
     40 C          10.3542    1.6246    0.0000 C.ar    1  UNL1       -0.0478
     41 C           9.1264    2.8462    0.0000 C.ar    1  UNL1       -0.0478
     42 C          11.0595    2.3334    0.0000 C.ar    1  UNL1       -0.0610
     43 C           9.8317    3.5551    0.0000 C.ar    1  UNL1       -0.0610
     44 C          10.7983    3.2987    0.0000 C.ar    1  UNL1       -0.0617
     45 H           4.6871   -1.4690    0.0000 H       1  UNL1        0.0339
     46 H           4.6473    1.1212    0.0000 H       1  UNL1        0.0314
     47 H           3.3042    0.8647    0.0000 H       1  UNL1        0.0474
     48 H           6.6613   -1.4540    0.0000 H       1  UNL1        0.0381
     49 H           7.1239    0.5560    0.0000 H       1  UNL1        0.0380
     50 H           5.8673   -1.6007    0.0000 H       1  UNL1        0.0603
     51 H           4.5362    0.9900    0.0000 H       1  UNL1        0.0602
     52 H           5.1684    2.2437    0.0000 H       1  UNL1        0.0298
     53 H           4.7428    1.5314    0.0000 H       1  UNL1        0.0298
     54 H           6.9506    1.9143    0.0000 H       1  UNL1        0.0768
     55 H           7.8426    0.3751    0.0000 H       1  UNL1        0.0661
     56 H           2.1845   -0.8744    0.0000 H       1  UNL1        0.0433
     57 H           2.7510   -1.5186    0.0000 H       1  UNL1        0.0433
     58 H           7.2179    2.1819    0.0000 H       1  UNL1        0.0653
     59 H           2.6374   -0.5137    0.0000 H       1  UNL1        0.0273
     60 H           3.0359   -1.2040    0.0000 H       1  UNL1        0.0273
     61 H           3.0359    0.8288    0.0000 H       1  UNL1        0.0290
     62 H           2.6374    0.1386    0.0000 H       1  UNL1        0.0290
     63 H           4.2114   -2.6377    0.0000 H       1  UNL1        0.0566
     64 H           4.6099   -1.9475    0.0000 H       1  UNL1        0.0566
     65 H           2.3687    0.9441    0.0000 H       1  UNL1        0.0391
     66 H           1.5015    0.8144    0.0000 H       1  UNL1        0.0391
     67 H           1.6313   -0.0528    0.0000 H       1  UNL1        0.0391
     68 H           6.6537    3.3150    0.0000 H       1  UNL1        0.2104
     69 H           8.0892   -1.0904    0.0000 H       1  UNL1        0.2101
     70 H           5.5178   -3.2718    0.0000 H       1  UNL1        0.0524
     71 H           6.3940   -3.2391    0.0000 H       1  UNL1        0.0524
     72 H           6.3612   -2.3629    0.0000 H       1  UNL1        0.0524
     73 H           3.4433    2.7170    0.0000 H       1  UNL1        0.0524
     74 H           2.5963    2.4900    0.0000 H       1  UNL1        0.0524
     75 H           2.8233    1.6431    0.0000 H       1  UNL1        0.0524
     76 H           8.6506    3.1866    0.0000 H       1  UNL1        0.0524
     77 H           7.9806    3.7522    0.0000 H       1  UNL1        0.0524
     78 H           7.4150    3.0823    0.0000 H       1  UNL1        0.0524
     79 H           7.2941   -3.0239    0.0000 H       1  UNL1        0.0342
     80 H           8.1706   -3.0469    0.0000 H       1  UNL1        0.0342
     81 H           8.1936   -2.1704    0.0000 H       1  UNL1        0.0342
     82 H           2.5133   -3.5551    0.0000 H       1  UNL1        0.0523
     83 H           3.1333   -4.1751    0.0000 H       1  UNL1        0.0523
     84 H           3.7533   -3.5551    0.0000 H       1  UNL1        0.0523
     85 H          10.5162    1.0261    0.0000 H       1  UNL1        0.0626
     86 H           8.5271    3.0052    0.0000 H       1  UNL1        0.0626
     87 H          11.6588    2.1745    0.0000 H       1  UNL1        0.0618
     88 H           9.6698    4.1536    0.0000 H       1  UNL1        0.0618
     89 H          11.2356    3.7382    0.0000 H       1  UNL1        0.0618
@<TRIPOS>BOND
     1    18     1    1
     2     1    32    1
     3     2    19    1
     4     2    33    1
     5     3    21    1
     6     3    34    1
     7     4    24    1
     8     4    35    1
     9    23     5    1
    10     5    68    1
    11     6    25    1
    12     6    69    1
    13     7    27    1
    14     7    36    1
    15     8    30    1
    16     8    38    1
    17     9    32    2
    18    10    35    2
    19    11    15    1
    20    11    26    1
    21    11    31    1
    22    12    13    1
    23    12    14    1
    24    12    15    1
    25    12    21    1
    26    13    19    1
    27    13    20    1
    28    13    45    1
    29    14    17    1
    30    14    22    1
    31    14    46    1
    32    15    16    1
    33    15    47    1
    34    16    18    1
    35    16    19    1
    36    16    48    1
    37    17    18    1
    38    17    24    1
    39    17    49    1
    40    18    25    1
    41    19    50    1
    42    20    26    1
    43    20    28    1
    44    20    30    1
    45    21    29    1
    46    21    51    1
    47    22    23    1
    48    22    52    1
    49    22    53    1
    50    23    24    1
    51    23    27    1
    52    24    54    1
    53    25    27    1
    54    25    55    1
    55    26    56    1
    56    26    57    1
    57    27    58    1
    58    28    29    1
    59    28    59    1
    60    28    60    1
    61    29    61    1
    62    29    62    1
    63    30    63    1
    64    30    64    1
    65    31    65    1
    66    31    66    1
    67    31    67    1
    68    32    37    1
    69    33    70    1
    70    33    71    1
    71    33    72    1
    72    34    73    1
    73    34    74    1
    74    34    75    1
    75    35    39    1
    76    36    76    1
    77    36    77    1
    78    36    78    1
    79    37    79    1
    80    37    80    1
    81    37    81    1
    82    38    82    1
    83    38    83    1
    84    38    84    1
    85    39    40   ar
    86    39    41   ar
    87    40    42   ar
    88    40    85    1
    89    41    43   ar
    90    41    86    1
    91    42    44   ar
    92    42    87    1
    93    43    44   ar
    94    43    88    1
    95    44    89    1
