@<TRIPOS>MOLECULE
IMPHY009811
 41 41 0 0 0
SMALL
GASTEIGER

@<TRIPOS>ATOM
      1 O           5.1350    1.7500    0.0000 O.3     1  UNL1       -0.3637
      2 O           2.5369    1.2500    0.0000 O.3     1  UNL1       -0.3861
      3 O           2.5369    3.2500    0.0000 O.3     1  UNL1       -0.3865
      4 O           4.2690    4.2500    0.0000 O.3     1  UNL1       -0.3869
      5 O           6.0010    0.2500    0.0000 O.3     1  UNL1       -0.3815
      6 O           4.2690   -1.7500    0.0000 O.3     1  UNL1       -0.3861
      7 O           6.8671   -1.2500    0.0000 O.3     1  UNL1       -0.3865
      8 O           3.4030   -0.2500    0.0000 O.2     1  UNL1       -0.2917
      9 O           5.1350   -3.2500    0.0000 O.3     1  UNL1       -0.3869
     10 O           6.8671   -4.2500    0.0000 O.3     1  UNL1       -0.3924
     11 C           4.2690    1.2500    0.0000 C.3     1  UNL1        0.1474
     12 C           3.4030    1.7500    0.0000 C.3     1  UNL1        0.1165
     13 C           3.4030    2.7500    0.0000 C.3     1  UNL1        0.1118
     14 C           4.2690    3.2500    0.0000 C.3     1  UNL1        0.1068
     15 C           5.1350   -0.2500    0.0000 C.3     1  UNL1        0.1438
     16 C           5.1350    2.7500    0.0000 C.3     1  UNL1        0.0771
     17 C           4.2690    0.2500    0.0000 C.2     1  UNL1        0.1951
     18 C           5.1350   -1.2500    0.0000 C.3     1  UNL1        0.1163
     19 C           6.0010   -1.7500    0.0000 C.3     1  UNL1        0.1118
     20 C           6.0010   -2.7500    0.0000 C.3     1  UNL1        0.1065
     21 C           6.8671   -3.2500    0.0000 C.3     1  UNL1        0.0727
     22 H           4.8059    0.9400    0.0000 H       1  UNL1        0.0704
     23 H           3.4030    1.1300    0.0000 H       1  UNL1        0.0650
     24 H           3.4030    3.3700    0.0000 H       1  UNL1        0.0647
     25 H           4.8059    3.5600    0.0000 H       1  UNL1        0.0643
     26 H           5.1350    0.3700    0.0000 H       1  UNL1        0.0701
     27 H           5.7456    2.6423    0.0000 H       1  UNL1        0.0587
     28 H           5.3471    3.3326    0.0000 H       1  UNL1        0.0587
     29 H           5.1350   -1.8700    0.0000 H       1  UNL1        0.0650
     30 H           6.5380   -2.0600    0.0000 H       1  UNL1        0.0647
     31 H           5.4641   -2.4400    0.0000 H       1  UNL1        0.0643
     32 H           2.0000    1.5600    0.0000 H       1  UNL1        0.2100
     33 H           2.5369    3.8700    0.0000 H       1  UNL1        0.2100
     34 H           4.8059    4.5600    0.0000 H       1  UNL1        0.2100
     35 H           7.4776   -3.3577    0.0000 H       1  UNL1        0.0584
     36 H           7.0791   -2.6674    0.0000 H       1  UNL1        0.0584
     37 H           6.5380   -0.0600    0.0000 H       1  UNL1        0.2105
     38 H           4.2690   -2.3700    0.0000 H       1  UNL1        0.2100
     39 H           7.4040   -1.5600    0.0000 H       1  UNL1        0.2100
     40 H           5.1350   -3.8700    0.0000 H       1  UNL1        0.2100
     41 H           7.4040   -4.5600    0.0000 H       1  UNL1        0.2095
@<TRIPOS>BOND
     1     1    11    1
     2     1    16    1
     3    12     2    1
     4     2    32    1
     5    13     3    1
     6     3    33    1
     7    14     4    1
     8     4    34    1
     9    15     5    1
    10     5    37    1
    11    18     6    1
    12     6    38    1
    13    19     7    1
    14     7    39    1
    15     8    17    2
    16    20     9    1
    17     9    40    1
    18    10    21    1
    19    10    41    1
    20    11    12    1
    21    11    17    1
    22    11    22    1
    23    12    13    1
    24    12    23    1
    25    13    14    1
    26    13    24    1
    27    14    16    1
    28    14    25    1
    29    15    17    1
    30    15    18    1
    31    15    26    1
    32    16    27    1
    33    16    28    1
    34    18    19    1
    35    18    29    1
    36    19    20    1
    37    19    30    1
    38    20    21    1
    39    20    31    1
    40    21    35    1
    41    21    36    1
