@<TRIPOS>MOLECULE
IMPHY015095
 29 29 0 0 0
SMALL
GASTEIGER

@<TRIPOS>ATOM
      1 O           3.3660    2.1830    0.0000 O.3     1  UNL1       -0.3848
      2 C           2.8660   -0.6830    0.0000 C.3     1  UNL1       -0.0204
      3 C           2.0000   -0.1830    0.0000 C.3     1  UNL1       -0.0436
      4 C           2.0000    0.8170    0.0000 C.3     1  UNL1       -0.0201
      5 C           2.8660    1.3170    0.0000 C.3     1  UNL1        0.0814
      6 C           2.8660   -1.6830    0.0000 C.3     1  UNL1       -0.0405
      7 C           3.7320   -0.1830    0.0000 C.2     1  UNL1       -0.0819
      8 C           3.7320    0.8170    0.0000 C.2     1  UNL1       -0.0568
      9 C           2.3660    2.1830    0.0000 C.3     1  UNL1       -0.0324
     10 C           2.0000   -2.1830    0.0000 C.3     1  UNL1       -0.0621
     11 C           3.7320   -2.1830    0.0000 C.3     1  UNL1       -0.0621
     12 H           3.4030   -0.9930    0.0000 H       1  UNL1        0.0345
     13 H           1.3894   -0.0754    0.0000 H       1  UNL1        0.0272
     14 H           1.7880   -0.7656    0.0000 H       1  UNL1        0.0272
     15 H           1.7880    1.3996    0.0000 H       1  UNL1        0.0296
     16 H           1.3894    0.7093    0.0000 H       1  UNL1        0.0296
     17 H           2.8660   -2.3030    0.0000 H       1  UNL1        0.0301
     18 H           4.2690   -0.4930    0.0000 H       1  UNL1        0.0573
     19 H           4.2690    1.1270    0.0000 H       1  UNL1        0.0597
     20 H           2.9030    2.4930    0.0000 H       1  UNL1        0.0260
     21 H           2.0560    2.7200    0.0000 H       1  UNL1        0.0260
     22 H           1.8291    1.8730    0.0000 H       1  UNL1        0.0260
     23 H           1.6900   -1.6461    0.0000 H       1  UNL1        0.0233
     24 H           1.4631   -2.4930    0.0000 H       1  UNL1        0.0233
     25 H           2.3100   -2.7200    0.0000 H       1  UNL1        0.0233
     26 H           3.4220   -2.7200    0.0000 H       1  UNL1        0.0233
     27 H           4.2690   -2.4930    0.0000 H       1  UNL1        0.0233
     28 H           4.0420   -1.6461    0.0000 H       1  UNL1        0.0233
     29 H           3.9860    2.1830    0.0000 H       1  UNL1        0.2106
@<TRIPOS>BOND
     1     5     1    1
     2     1    29    1
     3     2     3    1
     4     2     6    1
     5     2     7    1
     6     2    12    1
     7     3     4    1
     8     3    13    1
     9     3    14    1
    10     4     5    1
    11     4    15    1
    12     4    16    1
    13     5     8    1
    14     5     9    1
    15     6    10    1
    16     6    11    1
    17     6    17    1
    18     7     8    2
    19     7    18    1
    20     8    19    1
    21     9    20    1
    22     9    21    1
    23     9    22    1
    24    10    23    1
    25    10    24    1
    26    10    25    1
    27    11    26    1
    28    11    27    1
    29    11    28    1
