@<TRIPOS>MOLECULE
IMPHY014096
 52 55 0 0 0
SMALL
GASTEIGER

@<TRIPOS>ATOM
      1 O           9.2080   -2.0013    0.0000 O.3     1  UNL1       -0.3942
      2 O           7.5587   -2.5301    0.0000 O.3     1  UNL1       -0.4677
      3 O           6.2760   -1.3662    0.0000 O.2     1  UNL1       -0.2504
      4 N           6.9654    2.0780    0.0000 N.3     1  UNL1       -0.2898
      5 N           4.5124    0.9605    0.0000 N.ar    1  UNL1       -0.3564
      6 C           6.2962    1.3348    0.0000 C.3     1  UNL1        0.0518
      7 C           7.6200    0.1149    0.0000 C.3     1  UNL1       -0.0019
      8 C           6.6028    0.3393    0.0000 C.3     1  UNL1       -0.0244
      9 C           5.3181    1.5427    0.0000 C.ar    1  UNL1        0.0376
     10 C           7.9875    1.8771    0.0000 C.3     1  UNL1        0.0209
     11 C           8.3170    0.8890    0.0000 C.2     1  UNL1       -0.0558
     12 C           6.6564    3.0290    0.0000 C.3     1  UNL1        0.0039
     13 C           5.0091    2.4938    0.0000 C.ar    1  UNL1       -0.0164
     14 C           7.9253   -0.8373    0.0000 C.3     1  UNL1        0.0860
     15 C           5.6782    3.2369    0.0000 C.3     1  UNL1       -0.0125
     16 C           4.0150    2.4912    0.0000 C.ar    1  UNL1        0.0032
     17 C           3.7086    1.5455    0.0000 C.ar    1  UNL1        0.0470
     18 C           8.9027   -1.0490    0.0000 C.3     1  UNL1        0.0577
     19 C           9.2959    0.6848    0.0000 C.2     1  UNL1       -0.0864
     20 C           7.2533   -1.5779    0.0000 C.2     1  UNL1        0.3127
     21 C           3.3334    3.2707    0.0000 C.ar    1  UNL1       -0.0523
     22 C           2.6994    1.3138    0.0000 C.ar    1  UNL1       -0.0378
     23 C           9.9622    1.4306    0.0000 C.3     1  UNL1       -0.0465
     24 C           2.3191    3.0624    0.0000 C.ar    1  UNL1       -0.0611
     25 C           2.0000    2.0773    0.0000 C.ar    1  UNL1       -0.0598
     26 C           6.8867   -3.2707    0.0000 C.3     1  UNL1        0.0817
     27 H           5.8778    0.8773    0.0000 H       1  UNL1        0.0527
     28 H           7.2025   -0.3434    0.0000 H       1  UNL1        0.0355
     29 H           5.9878    0.2609    0.0000 H       1  UNL1        0.0290
     30 H           6.5748   -0.2800    0.0000 H       1  UNL1        0.0290
     31 H           8.6005    1.9697    0.0000 H       1  UNL1        0.0473
     32 H           8.0011    2.4970    0.0000 H       1  UNL1        0.0473
     33 H           7.2703    3.1153    0.0000 H       1  UNL1        0.0430
     34 H           6.6780    3.6486    0.0000 H       1  UNL1        0.0430
     35 H           8.1146   -1.4277    0.0000 H       1  UNL1        0.0442
     36 H           5.9105    3.8118    0.0000 H       1  UNL1        0.0326
     37 H           5.1524    3.5655    0.0000 H       1  UNL1        0.0326
     38 H           4.5113    0.3405    0.0000 H       1  UNL1        0.1656
     39 H           9.5170   -0.9651    0.0000 H       1  UNL1        0.0565
     40 H           8.9267   -0.4295    0.0000 H       1  UNL1        0.0565
     41 H           9.4898    0.0959    0.0000 H       1  UNL1        0.0569
     42 H           3.5313    3.8583    0.0000 H       1  UNL1        0.0624
     43 H           2.5152    0.7218    0.0000 H       1  UNL1        0.0638
     44 H          10.4245    1.0175    0.0000 H       1  UNL1        0.0272
     45 H          10.3752    1.8929    0.0000 H       1  UNL1        0.0272
     46 H           9.4998    1.8436    0.0000 H       1  UNL1        0.0272
     47 H           1.9056    3.5243    0.0000 H       1  UNL1        0.0618
     48 H           1.3942    1.9455    0.0000 H       1  UNL1        0.0618
     49 H           9.8140   -2.1325    0.0000 H       1  UNL1        0.2094
     50 H           6.4276   -2.8541    0.0000 H       1  UNL1        0.0661
     51 H           6.4701   -3.7298    0.0000 H       1  UNL1        0.0661
     52 H           7.3458   -3.6873    0.0000 H       1  UNL1        0.0661
@<TRIPOS>BOND
     1     1    18    1
     2     1    49    1
     3     2    20    1
     4     2    26    1
     5     3    20    2
     6     4     6    1
     7     4    10    1
     8     4    12    1
     9     5     9   ar
    10     5    17   ar
    11     5    38    1
    12     6     8    1
    13     6     9    1
    14     6    27    1
    15     7     8    1
    16     7    11    1
    17     7    14    1
    18     7    28    1
    19     8    29    1
    20     8    30    1
    21     9    13   ar
    22    10    11    1
    23    10    31    1
    24    10    32    1
    25    11    19    2
    26    12    15    1
    27    12    33    1
    28    12    34    1
    29    13    15    1
    30    13    16   ar
    31    14    18    1
    32    14    20    1
    33    14    35    1
    34    15    36    1
    35    15    37    1
    36    16    17   ar
    37    16    21   ar
    38    17    22   ar
    39    18    39    1
    40    18    40    1
    41    19    23    1
    42    19    41    1
    43    21    24   ar
    44    21    42    1
    45    22    25   ar
    46    22    43    1
    47    23    44    1
    48    23    45    1
    49    23    46    1
    50    24    25   ar
    51    24    47    1
    52    25    48    1
    53    26    50    1
    54    26    51    1
    55    26    52    1
