@<TRIPOS>MOLECULE
IMPHY009348
 21 22 0 0 0
SMALL
GASTEIGER

@<TRIPOS>ATOM
      1 N           3.5388   -0.5000    0.0000 N.3     1  UNL1       -0.2994
      2 C           3.5388    0.5000    0.0000 C.3     1  UNL1        0.0105
      3 C           4.4851    0.8047    0.0000 C.3     1  UNL1       -0.0362
      4 C           2.5878    0.8090    0.0000 C.3     1  UNL1       -0.0362
      5 C           2.5878   -0.8090    0.0000 C.3     1  UNL1       -0.0008
      6 C           4.4851   -0.8047    0.0000 C.3     1  UNL1       -0.0008
      7 C           5.0687    0.0000    0.0000 C.3     1  UNL1       -0.0388
      8 C           2.0000   -0.0000    0.0000 C.3     1  UNL1       -0.0388
      9 H           3.5396    1.1200    0.0000 H       1  UNL1        0.0462
     10 H           2.8400    1.3754    0.0000 H       1  UNL1        0.0281
     11 H           2.0508    1.1190    0.0000 H       1  UNL1        0.0281
     12 H           5.0224    1.1140    0.0000 H       1  UNL1        0.0281
     13 H           4.2340    1.3716    0.0000 H       1  UNL1        0.0281
     14 H           4.2340   -1.3716    0.0000 H       1  UNL1        0.0427
     15 H           5.0224   -1.1140    0.0000 H       1  UNL1        0.0427
     16 H           2.0508   -1.1190    0.0000 H       1  UNL1        0.0427
     17 H           2.8400   -1.3754    0.0000 H       1  UNL1        0.0427
     18 H           5.5295   -0.4147    0.0000 H       1  UNL1        0.0278
     19 H           5.5295    0.4147    0.0000 H       1  UNL1        0.0278
     20 H           1.5392    0.4149    0.0000 H       1  UNL1        0.0278
     21 H           1.5392   -0.4149    0.0000 H       1  UNL1        0.0278
@<TRIPOS>BOND
     1     1     2    1
     2     1     5    1
     3     1     6    1
     4     2     3    1
     5     2     4    1
     6     2     9    1
     7     3     7    1
     8     3    12    1
     9     3    13    1
    10     4     8    1
    11     4    10    1
    12     4    11    1
    13     5     8    1
    14     5    16    1
    15     5    17    1
    16     6     7    1
    17     6    14    1
    18     6    15    1
    19     7    18    1
    20     7    19    1
    21     8    20    1
    22     8    21    1
