@<TRIPOS>MOLECULE
IMPHY016064
 42 41 0 0 0
SMALL
GASTEIGER

@<TRIPOS>ATOM
      1 C           5.4641    0.4400    0.0000 C.3     1  UNL1       -0.0286
      2 C           6.3301   -0.0600    0.0000 C.2     1  UNL1       -0.0762
      3 C           8.0622   -0.0600    0.0000 C.3     1  UNL1       -0.0308
      4 C           4.5981   -0.0600    0.0000 C.3     1  UNL1       -0.0308
      5 C           8.9282    0.4400    0.0000 C.3     1  UNL1       -0.0283
      6 C           7.1962    0.4400    0.0000 C.2     1  UNL1       -0.0847
      7 C           9.7942   -0.0600    0.0000 C.2     1  UNL1       -0.0723
      8 C           6.3301   -1.0600    0.0000 C.3     1  UNL1       -0.0438
      9 C           3.7320    0.4400    0.0000 C.2     1  UNL1       -0.0850
     10 C           2.8660   -0.0600    0.0000 C.2     1  UNL1       -0.0796
     11 C           9.7942   -1.0600    0.0000 C.3     1  UNL1       -0.0435
     12 C          10.6603    0.4400    0.0000 C.2     1  UNL1       -0.0633
     13 C           2.0000    0.4400    0.0000 C.3     1  UNL1       -0.0440
     14 C           2.8660   -1.0600    0.0000 C.3     1  UNL1       -0.0440
     15 C          11.5263   -0.0600    0.0000 C.2     1  UNL1       -0.0689
     16 C          12.3923    0.4400    0.0000 C.2     1  UNL1       -0.0987
     17 H           5.8626    0.9149    0.0000 H       1  UNL1        0.0313
     18 H           5.0656    0.9149    0.0000 H       1  UNL1        0.0313
     19 H           7.6636   -0.5349    0.0000 H       1  UNL1        0.0310
     20 H           8.4607   -0.5349    0.0000 H       1  UNL1        0.0310
     21 H           4.1996   -0.5349    0.0000 H       1  UNL1        0.0310
     22 H           4.9966   -0.5349    0.0000 H       1  UNL1        0.0310
     23 H           9.3267    0.9149    0.0000 H       1  UNL1        0.0313
     24 H           8.5297    0.9149    0.0000 H       1  UNL1        0.0313
     25 H           7.1962    1.0600    0.0000 H       1  UNL1        0.0572
     26 H           5.7101   -1.0600    0.0000 H       1  UNL1        0.0274
     27 H           6.3301   -1.6800    0.0000 H       1  UNL1        0.0274
     28 H           6.9501   -1.0600    0.0000 H       1  UNL1        0.0274
     29 H           3.7320    1.0600    0.0000 H       1  UNL1        0.0572
     30 H           9.1742   -1.0600    0.0000 H       1  UNL1        0.0274
     31 H           9.7942   -1.6800    0.0000 H       1  UNL1        0.0274
     32 H          10.4142   -1.0600    0.0000 H       1  UNL1        0.0274
     33 H          10.6603    1.0600    0.0000 H       1  UNL1        0.0617
     34 H           2.3100    0.9769    0.0000 H       1  UNL1        0.0274
     35 H           1.4631    0.7500    0.0000 H       1  UNL1        0.0274
     36 H           1.6900   -0.0969    0.0000 H       1  UNL1        0.0274
     37 H           2.2460   -1.0600    0.0000 H       1  UNL1        0.0274
     38 H           2.8660   -1.6800    0.0000 H       1  UNL1        0.0274
     39 H           3.4860   -1.0600    0.0000 H       1  UNL1        0.0274
     40 H          11.5263   -0.6800    0.0000 H       1  UNL1        0.0612
     41 H          12.9292    0.1300    0.0000 H       1  UNL1        0.0535
     42 H          12.3923    1.0600    0.0000 H       1  UNL1        0.0535
@<TRIPOS>BOND
     1     1     2    1
     2     1     4    1
     3     1    17    1
     4     1    18    1
     5     2     6    2
     6     2     8    1
     7     3     5    1
     8     3     6    1
     9     3    19    1
    10     3    20    1
    11     4     9    1
    12     4    21    1
    13     4    22    1
    14     5     7    1
    15     5    23    1
    16     5    24    1
    17     6    25    1
    18     7    11    1
    19     7    12    2
    20     8    26    1
    21     8    27    1
    22     8    28    1
    23     9    10    2
    24     9    29    1
    25    10    13    1
    26    10    14    1
    27    11    30    1
    28    11    31    1
    29    11    32    1
    30    12    15    1
    31    12    33    1
    32    13    34    1
    33    13    35    1
    34    13    36    1
    35    14    37    1
    36    14    38    1
    37    14    39    1
    38    15    16    2
    39    15    40    1
    40    16    41    1
    41    16    42    1
