@<TRIPOS>MOLECULE
IMPHY006749
 69 73 0 0 0
SMALL
GASTEIGER

@<TRIPOS>ATOM
      1 O           6.0010   -0.3450    0.0000 O.3     1  UNL1       -0.3395
      2 O           4.2690   -0.3450    0.0000 O.3     1  UNL1       -0.3431
      3 O           6.8671    2.1550    0.0000 O.3     1  UNL1       -0.3585
      4 O           6.0010   -2.3450    0.0000 O.3     1  UNL1       -0.3841
      5 O           4.2690   -3.3450    0.0000 O.3     1  UNL1       -0.3864
      6 O           2.5369   -2.3450    0.0000 O.3     1  UNL1       -0.3866
      7 O           4.2690    0.6550    0.0000 O.3     1  UNL1       -0.3815
      8 O           4.2690    2.6550    0.0000 O.2     1  UNL1       -0.2918
      9 O           8.5991    2.1550    0.0000 O.3     1  UNL1       -0.5054
     10 O           6.8671   -0.8450    0.0000 O.3     1  UNL1       -0.5062
     11 O          10.3591   -0.8797    0.0000 O.2     1  UNL1       -0.4544
     12 O          10.3475    2.1896    0.0000 O.2     1  UNL1       -0.2869
     13 O          14.7292   -0.3792    0.0000 O.3     1  UNL1       -0.5033
     14 O          14.7215   -2.3792    0.0000 O.3     1  UNL1       -0.5033
     15 C           6.0010    0.6550    0.0000 C.3     1  UNL1        0.1249
     16 C           5.1350   -0.8450    0.0000 C.3     1  UNL1        0.1884
     17 C           5.1350   -1.8450    0.0000 C.3     1  UNL1        0.1341
     18 C           4.2690   -2.3450    0.0000 C.3     1  UNL1        0.1140
     19 C           6.8671    1.1550    0.0000 C.3     1  UNL1        0.1203
     20 C           3.4030   -1.8450    0.0000 C.3     1  UNL1        0.1095
     21 C           3.4030   -0.8450    0.0000 C.3     1  UNL1        0.0873
     22 C           5.1350    1.1550    0.0000 C.3     1  UNL1        0.1443
     23 C           6.0010    2.6550    0.0000 C.3     1  UNL1        0.1172
     24 C           5.1350    2.1550    0.0000 C.2     1  UNL1        0.1923
     25 C           7.7331    0.6550    0.0000 C.ar    1  UNL1        0.0674
     26 C           2.5369   -0.3450    0.0000 C.3     1  UNL1       -0.0361
     27 C           6.0010    3.6550    0.0000 C.3     1  UNL1       -0.0316
     28 C           8.5991    1.1550    0.0000 C.ar    1  UNL1        0.1404
     29 C           7.7331   -0.3450    0.0000 C.ar    1  UNL1        0.1296
     30 C           9.4651    0.6550    0.0000 C.ar    1  UNL1        0.1058
     31 C           8.5991   -0.8450    0.0000 C.ar    1  UNL1        0.0235
     32 C           9.4651   -0.3450    0.0000 C.ar    1  UNL1        0.1463
     33 C          10.3591    1.1897    0.0000 C.ar    1  UNL1        0.1966
     34 C          11.2651    0.6758    0.0000 C.ar    1  UNL1        0.0288
     35 C          11.2651   -0.3658    0.0000 C.ar    1  UNL1        0.1393
     36 C          12.1292   -0.8692    0.0000 C.ar    1  UNL1        0.0211
     37 C          12.9972   -0.3725    0.0000 C.ar    1  UNL1       -0.0059
     38 C          12.1254   -1.8691    0.0000 C.ar    1  UNL1       -0.0474
     39 C          13.8613   -0.8758    0.0000 C.ar    1  UNL1        0.1589
     40 C          12.9895   -2.3725    0.0000 C.ar    1  UNL1       -0.0159
     41 C          13.8574   -1.8758    0.0000 C.ar    1  UNL1        0.1583
     42 H           6.5380    0.3450    0.0000 H       1  UNL1        0.0657
     43 H           5.1350   -0.2250    0.0000 H       1  UNL1        0.0938
     44 H           5.1350   -2.4650    0.0000 H       1  UNL1        0.0671
     45 H           3.7320   -2.6550    0.0000 H       1  UNL1        0.0648
     46 H           7.6032    1.5800    0.0000 H       1  UNL1        0.0676
     47 H           2.8660   -1.5350    0.0000 H       1  UNL1        0.0646
     48 H           3.4030   -0.2250    0.0000 H       1  UNL1        0.0621
     49 H           5.1350    0.5350    0.0000 H       1  UNL1        0.0701
     50 H           6.5380    2.9650    0.0000 H       1  UNL1        0.0674
     51 H           2.8469    0.1919    0.0000 H       1  UNL1        0.0255
     52 H           2.0000   -0.0350    0.0000 H       1  UNL1        0.0255
     53 H           2.2269   -0.8819    0.0000 H       1  UNL1        0.0255
     54 H           6.0010   -2.9650    0.0000 H       1  UNL1        0.2101
     55 H           6.6210    3.6550    0.0000 H       1  UNL1        0.0259
     56 H           6.0010    4.2750    0.0000 H       1  UNL1        0.0259
     57 H           5.3810    3.6550    0.0000 H       1  UNL1        0.0259
     58 H           3.7320   -3.6550    0.0000 H       1  UNL1        0.2100
     59 H           2.0000   -2.0350    0.0000 H       1  UNL1        0.2100
     60 H           3.7320    0.9650    0.0000 H       1  UNL1        0.2105
     61 H           8.5991   -1.4650    0.0000 H       1  UNL1        0.0691
     62 H           9.1360    2.4650    0.0000 H       1  UNL1        0.2922
     63 H           6.8671   -1.4650    0.0000 H       1  UNL1        0.2922
     64 H          11.8009    0.9879    0.0000 H       1  UNL1        0.0693
     65 H          12.9996    0.2475    0.0000 H       1  UNL1        0.0662
     66 H          11.5873   -2.1771    0.0000 H       1  UNL1        0.0626
     67 H          12.9871   -2.9925    0.0000 H       1  UNL1        0.0655
     68 H          15.2650   -0.6912    0.0000 H       1  UNL1        0.2923
     69 H          14.7191   -2.9992    0.0000 H       1  UNL1        0.2923
@<TRIPOS>BOND
     1    15     1    1
     2    16     1    1
     3     2    16    1
     4     2    21    1
     5     3    19    1
     6     3    23    1
     7    17     4    1
     8     4    54    1
     9    18     5    1
    10     5    58    1
    11    20     6    1
    12     6    59    1
    13    22     7    1
    14     7    60    1
    15     8    24    2
    16     9    28    1
    17     9    62    1
    18    10    29    1
    19    10    63    1
    20    11    32   ar
    21    11    35   ar
    22    12    33    2
    23    13    39    1
    24    13    68    1
    25    14    41    1
    26    14    69    1
    27    15    19    1
    28    15    22    1
    29    15    42    1
    30    16    17    1
    31    16    43    1
    32    17    18    1
    33    17    44    1
    34    18    20    1
    35    18    45    1
    36    19    25    1
    37    19    46    1
    38    20    21    1
    39    20    47    1
    40    21    26    1
    41    21    48    1
    42    22    24    1
    43    22    49    1
    44    23    24    1
    45    23    27    1
    46    23    50    1
    47    25    28   ar
    48    25    29   ar
    49    26    51    1
    50    26    52    1
    51    26    53    1
    52    27    55    1
    53    27    56    1
    54    27    57    1
    55    28    30   ar
    56    29    31   ar
    57    30    32   ar
    58    30    33   ar
    59    31    32   ar
    60    31    61    1
    61    33    34   ar
    62    34    35   ar
    63    34    64    1
    64    35    36    1
    65    36    37   ar
    66    36    38   ar
    67    37    39   ar
    68    37    65    1
    69    38    40   ar
    70    38    66    1
    71    39    41   ar
    72    40    41   ar
    73    40    67    1
