@<TRIPOS>MOLECULE
IMPHY009720
 53 55 0 0 0
SMALL
GASTEIGER

@<TRIPOS>ATOM
      1 O           5.1350   -2.4050    0.0000 O.3     1  UNL1       -0.3313
      2 O           5.1350   -5.4050    0.0000 O.3     1  UNL1       -0.3864
      3 O           3.4030   -4.4050    0.0000 O.3     1  UNL1       -0.3865
      4 O           6.8671   -2.4050    0.0000 O.3     1  UNL1       -0.4572
      5 O           6.8671   -4.4050    0.0000 O.3     1  UNL1       -0.3829
      6 O           2.5369   -2.9050    0.0000 O.3     1  UNL1       -0.3924
      7 O           8.5991   -1.4050    0.0000 O.3     1  UNL1       -0.5033
      8 O           7.7331    2.0950    0.0000 O.3     1  UNL1       -0.4564
      9 O           6.8671    3.5950    0.0000 O.2     1  UNL1       -0.2449
     10 O          11.1972    3.0950    0.0000 O.3     1  UNL1       -0.5033
     11 O          11.1972    5.0950    0.0000 O.3     1  UNL1       -0.5033
     12 C           4.2690   -3.9050    0.0000 C.3     1  UNL1        0.1120
     13 C           5.1350   -4.4050    0.0000 C.3     1  UNL1        0.1152
     14 C           4.2690   -2.9050    0.0000 C.3     1  UNL1        0.1140
     15 C           6.0010   -3.9050    0.0000 C.3     1  UNL1        0.1454
     16 C           6.0010   -2.9050    0.0000 C.3     1  UNL1        0.2310
     17 C           3.4030   -2.4050    0.0000 C.3     1  UNL1        0.0731
     18 C           6.8671   -1.4050    0.0000 C.ar    1  UNL1        0.1652
     19 C           7.7331   -0.9050    0.0000 C.ar    1  UNL1        0.1589
     20 C           6.0010   -0.9050    0.0000 C.ar    1  UNL1       -0.0158
     21 C           6.8671    0.5950    0.0000 C.ar    1  UNL1       -0.0066
     22 C           7.7331    0.0950    0.0000 C.ar    1  UNL1       -0.0101
     23 C           6.0010    0.0950    0.0000 C.ar    1  UNL1       -0.0517
     24 C           6.8671    1.5950    0.0000 C.3     1  UNL1        0.1180
     25 C           7.7331    3.0950    0.0000 C.2     1  UNL1        0.3396
     26 C           8.5991    3.5950    0.0000 C.ar    1  UNL1        0.0627
     27 C           9.4651    3.0950    0.0000 C.ar    1  UNL1       -0.0026
     28 C           8.5991    4.5950    0.0000 C.ar    1  UNL1       -0.0441
     29 C          10.3312    3.5950    0.0000 C.ar    1  UNL1        0.1590
     30 C           9.4651    5.0950    0.0000 C.ar    1  UNL1       -0.0158
     31 C          10.3312    4.5950    0.0000 C.ar    1  UNL1        0.1583
     32 H           5.6720   -4.7150    0.0000 H       1  UNL1        0.0648
     33 H           3.7320   -3.5950    0.0000 H       1  UNL1        0.0647
     34 H           4.2690   -2.2850    0.0000 H       1  UNL1        0.0647
     35 H           6.5380   -3.5950    0.0000 H       1  UNL1        0.0683
     36 H           6.0010   -2.2850    0.0000 H       1  UNL1        0.1084
     37 H           3.8015   -1.9300    0.0000 H       1  UNL1        0.0584
     38 H           3.0044   -1.9300    0.0000 H       1  UNL1        0.0584
     39 H           4.5981   -5.7150    0.0000 H       1  UNL1        0.2100
     40 H           3.4030   -5.0250    0.0000 H       1  UNL1        0.2100
     41 H           6.8671   -5.0250    0.0000 H       1  UNL1        0.2102
     42 H           2.0000   -2.5950    0.0000 H       1  UNL1        0.2095
     43 H           5.4641   -1.2150    0.0000 H       1  UNL1        0.0655
     44 H           8.2700    0.4050    0.0000 H       1  UNL1        0.0659
     45 H           5.4641    0.4050    0.0000 H       1  UNL1        0.0623
     46 H           6.6550    2.1776    0.0000 H       1  UNL1        0.0749
     47 H           6.2565    1.4873    0.0000 H       1  UNL1        0.0749
     48 H           9.1360   -1.0950    0.0000 H       1  UNL1        0.2923
     49 H           9.4651    2.4750    0.0000 H       1  UNL1        0.0663
     50 H           8.0622    4.9050    0.0000 H       1  UNL1        0.0627
     51 H           9.4651    5.7150    0.0000 H       1  UNL1        0.0655
     52 H          11.7341    3.4050    0.0000 H       1  UNL1        0.2923
     53 H          11.1972    5.7150    0.0000 H       1  UNL1        0.2923
@<TRIPOS>BOND
     1     1    14    1
     2     1    16    1
     3    13     2    1
     4     2    39    1
     5    12     3    1
     6     3    40    1
     7    16     4    1
     8     4    18    1
     9    15     5    1
    10     5    41    1
    11     6    17    1
    12     6    42    1
    13     7    19    1
    14     7    48    1
    15     8    24    1
    16     8    25    1
    17     9    25    2
    18    10    29    1
    19    10    52    1
    20    11    31    1
    21    11    53    1
    22    12    13    1
    23    12    14    1
    24    12    33    1
    25    13    15    1
    26    13    32    1
    27    14    17    1
    28    14    34    1
    29    15    16    1
    30    15    35    1
    31    16    36    1
    32    17    37    1
    33    17    38    1
    34    18    19   ar
    35    18    20   ar
    36    19    22   ar
    37    20    23   ar
    38    20    43    1
    39    21    22   ar
    40    21    23   ar
    41    21    24    1
    42    22    44    1
    43    23    45    1
    44    24    46    1
    45    24    47    1
    46    25    26    1
    47    26    27   ar
    48    26    28   ar
    49    27    29   ar
    50    27    49    1
    51    28    30   ar
    52    28    50    1
    53    29    31   ar
    54    30    31   ar
    55    30    51    1
