@<TRIPOS>MOLECULE
IMPHY013378
 55 58 0 0 0
SMALL
GASTEIGER

@<TRIPOS>ATOM
      1 O           7.7627    0.7400    0.0000 O.3     1  UNL1       -0.3886
      2 C           5.6538   -0.1308    0.0000 C.3     1  UNL1       -0.0230
      3 C           4.7853    0.3648    0.0000 C.3     1  UNL1       -0.0296
      4 C           3.8778   -0.1465    0.0000 C.3     1  UNL1       -0.0254
      5 C           3.8750   -1.1882    0.0000 C.3     1  UNL1       -0.0302
      6 C           5.6293    1.0505    0.0000 C.3     1  UNL1       -0.0416
      7 C           6.3054    2.0196    0.0000 C.3     1  UNL1       -0.0118
      8 C           6.5828    0.2391    0.0000 C.3     1  UNL1       -0.0181
      9 C           5.6751   -1.1722    0.0000 C.3     1  UNL1       -0.0467
     10 C           6.8728    1.1962    0.0000 C.3     1  UNL1        0.0667
     11 C           4.6313    1.3529    0.0000 C.3     1  UNL1       -0.0489
     12 C           4.7797   -1.7045    0.0000 C.3     1  UNL1       -0.0487
     13 C           2.9423   -1.7425    0.0000 C.3     1  UNL1       -0.0315
     14 C           5.3078    2.0894    0.0000 C.3     1  UNL1       -0.0473
     15 C           2.9482    0.4129    0.0000 C.3     1  UNL1       -0.0471
     16 C           3.8806    0.8535    0.0000 C.3     1  UNL1       -0.0590
     17 C           2.0000   -1.2047    0.0000 C.3     1  UNL1       -0.0476
     18 C           2.0029   -0.1197    0.0000 C.3     1  UNL1       -0.0521
     19 C           7.5817    1.9015    0.0000 C.3     1  UNL1       -0.0358
     20 C           2.4500   -2.6130    0.0000 C.3     1  UNL1       -0.0595
     21 C           3.4500   -2.6041    0.0000 C.3     1  UNL1       -0.0595
     22 H           5.2958    0.7167    0.0000 H       1  UNL1        0.0311
     23 H           3.8805   -1.8081    0.0000 H       1  UNL1        0.0311
     24 H           5.2551    1.5448    0.0000 H       1  UNL1        0.0274
     25 H           5.0436    0.8471    0.0000 H       1  UNL1        0.0274
     26 H           6.5519    2.8331    0.0000 H       1  UNL1        0.0329
     27 H           6.6783   -0.3735    0.0000 H       1  UNL1        0.0298
     28 H           7.2013    0.1959    0.0000 H       1  UNL1        0.0298
     29 H           5.8960   -1.7516    0.0000 H       1  UNL1        0.0271
     30 H           6.2836   -1.0537    0.0000 H       1  UNL1        0.0271
     31 H           4.2795    1.8634    0.0000 H       1  UNL1        0.0268
     32 H           4.0553    1.1235    0.0000 H       1  UNL1        0.0268
     33 H           4.3847   -2.1824    0.0000 H       1  UNL1        0.0268
     34 H           5.1830   -2.1754    0.0000 H       1  UNL1        0.0268
     35 H           5.4876    2.6827    0.0000 H       1  UNL1        0.0269
     36 H           4.7694    2.3967    0.0000 H       1  UNL1        0.0269
     37 H           3.3541    0.8816    0.0000 H       1  UNL1        0.0271
     38 H           2.5559    0.8930    0.0000 H       1  UNL1        0.0271
     39 H           4.5005    0.8518    0.0000 H       1  UNL1        0.0235
     40 H           3.8822    1.4735    0.0000 H       1  UNL1        0.0235
     41 H           3.2606    0.8552    0.0000 H       1  UNL1        0.0235
     42 H           1.3894   -1.0970    0.0000 H       1  UNL1        0.0271
     43 H           1.7894   -1.7879    0.0000 H       1  UNL1        0.0271
     44 H           1.7955    0.4645    0.0000 H       1  UNL1        0.0266
     45 H           1.3918   -0.2242    0.0000 H       1  UNL1        0.0266
     46 H           8.0190    1.4620    0.0000 H       1  UNL1        0.0257
     47 H           8.0212    2.3388    0.0000 H       1  UNL1        0.0257
     48 H           7.1444    2.3410    0.0000 H       1  UNL1        0.0257
     49 H           1.9104   -2.3077    0.0000 H       1  UNL1        0.0235
     50 H           2.1448   -3.1526    0.0000 H       1  UNL1        0.0235
     51 H           2.9897   -2.9182    0.0000 H       1  UNL1        0.0235
     52 H           2.9158   -2.9188    0.0000 H       1  UNL1        0.0235
     53 H           3.7647   -3.1383    0.0000 H       1  UNL1        0.0235
     54 H           3.9841   -2.2894    0.0000 H       1  UNL1        0.0235
     55 H           8.2835    1.0764    0.0000 H       1  UNL1        0.2102
@<TRIPOS>BOND
     1    10     1    1
     2     1    55    1
     3     2     3    1
     4     2     6    1
     5     2     8    1
     6     2     9    1
     7     3     4    1
     8     3    11    1
     9     3    22    1
    10     4     5    1
    11     4    15    1
    12     4    16    1
    13     5    12    1
    14     5    13    1
    15     5    23    1
    16     6     7    1
    17     6    24    1
    18     6    25    1
    19     7    10    1
    20     7    14    1
    21     7    26    1
    22     8    10    1
    23     8    27    1
    24     8    28    1
    25     9    12    1
    26     9    29    1
    27     9    30    1
    28    10    19    1
    29    11    14    1
    30    11    31    1
    31    11    32    1
    32    12    33    1
    33    12    34    1
    34    13    17    1
    35    13    20    1
    36    13    21    1
    37    14    35    1
    38    14    36    1
    39    15    18    1
    40    15    37    1
    41    15    38    1
    42    16    39    1
    43    16    40    1
    44    16    41    1
    45    17    18    1
    46    17    42    1
    47    17    43    1
    48    18    44    1
    49    18    45    1
    50    19    46    1
    51    19    47    1
    52    19    48    1
    53    20    49    1
    54    20    50    1
    55    20    51    1
    56    21    52    1
    57    21    53    1
    58    21    54    1
