@<TRIPOS>MOLECULE
IMPHY013032
 44 46 0 0 0
SMALL
GASTEIGER

@<TRIPOS>ATOM
      1 O           2.8641   -0.5208    0.0000 O.3     1  UNL1       -0.3689
      2 O           5.5301    2.0000    0.0000 O.2     1  UNL1       -0.2868
      3 O           5.5301   -2.0000    0.0000 O.2     1  UNL1       -0.2867
      4 O           7.2785    2.0346    0.0000 O.3     1  UNL1       -0.4907
      5 O           7.2785   -2.0346    0.0000 O.3     1  UNL1       -0.4943
      6 O           9.0602    1.0241    0.0000 O.3     1  UNL1       -0.4913
      7 C           4.6641    0.5000    0.0000 C.2     1  UNL1        0.0117
      8 C           3.7702    1.0347    0.0000 C.3     1  UNL1        0.0026
      9 C           4.6641   -0.5000    0.0000 C.2     1  UNL1        0.0351
     10 C           2.8641    0.5208    0.0000 C.3     1  UNL1        0.0608
     11 C           3.7702   -1.0347    0.0000 C.3     1  UNL1        0.0851
     12 C           5.5301    1.0000    0.0000 C.2     1  UNL1        0.1942
     13 C           5.5301   -1.0000    0.0000 C.2     1  UNL1        0.1963
     14 C           6.3961    0.5000    0.0000 C.ar    1  UNL1        0.0815
     15 C           6.3961   -0.5000    0.0000 C.ar    1  UNL1        0.0781
     16 C           3.7817   -2.0346    0.0000 C.3     1  UNL1       -0.0344
     17 C           2.0000    1.0241    0.0000 C.3     1  UNL1       -0.0384
     18 C           7.2901    1.0347    0.0000 C.ar    1  UNL1        0.1732
     19 C           7.2901   -1.0347    0.0000 C.ar    1  UNL1        0.1353
     20 C           8.1962    0.5208    0.0000 C.ar    1  UNL1        0.1657
     21 C           8.1962   -0.5208    0.0000 C.ar    1  UNL1        0.0262
     22 C           8.1387    2.5446    0.0000 C.3     1  UNL1        0.0790
     23 C           8.1387   -2.5446    0.0000 C.3     1  UNL1        0.0788
     24 C           9.9282    0.5275    0.0000 C.3     1  UNL1        0.0790
     25 H           4.1748    1.5044    0.0000 H       1  UNL1        0.0339
     26 H           3.3765    1.5137    0.0000 H       1  UNL1        0.0339
     27 H           2.3266    0.2119    0.0000 H       1  UNL1        0.0597
     28 H           3.2362   -1.3498    0.0000 H       1  UNL1        0.0645
     29 H           3.1618   -2.0418    0.0000 H       1  UNL1        0.0258
     30 H           3.7889   -2.6546    0.0000 H       1  UNL1        0.0258
     31 H           4.4017   -2.0274    0.0000 H       1  UNL1        0.0258
     32 H           2.3121    1.5599    0.0000 H       1  UNL1        0.0255
     33 H           1.4643    1.3362    0.0000 H       1  UNL1        0.0255
     34 H           1.6879    0.4884    0.0000 H       1  UNL1        0.0255
     35 H           8.7319   -0.8329    0.0000 H       1  UNL1        0.0692
     36 H           8.4549    2.0113    0.0000 H       1  UNL1        0.0660
     37 H           8.6720    2.8608    0.0000 H       1  UNL1        0.0660
     38 H           7.8225    3.0779    0.0000 H       1  UNL1        0.0660
     39 H           7.8225   -3.0779    0.0000 H       1  UNL1        0.0660
     40 H           8.6720   -2.8608    0.0000 H       1  UNL1        0.0660
     41 H           8.4549   -2.0113    0.0000 H       1  UNL1        0.0660
     42 H           9.6203   -0.0106    0.0000 H       1  UNL1        0.0660
     43 H          10.4663    0.2196    0.0000 H       1  UNL1        0.0660
     44 H          10.2361    1.0656    0.0000 H       1  UNL1        0.0660
@<TRIPOS>BOND
     1     1    10    1
     2     1    11    1
     3     2    12    2
     4     3    13    2
     5     4    18    1
     6     4    22    1
     7     5    19    1
     8     5    23    1
     9     6    20    1
    10     6    24    1
    11     7     8    1
    12     7     9    2
    13     7    12    1
    14     8    10    1
    15     8    25    1
    16     8    26    1
    17     9    11    1
    18     9    13    1
    19    10    17    1
    20    10    27    1
    21    11    16    1
    22    11    28    1
    23    12    14    1
    24    13    15    1
    25    14    15   ar
    26    14    18   ar
    27    15    19   ar
    28    16    29    1
    29    16    30    1
    30    16    31    1
    31    17    32    1
    32    17    33    1
    33    17    34    1
    34    18    20   ar
    35    19    21   ar
    36    20    21   ar
    37    21    35    1
    38    22    36    1
    39    22    37    1
    40    22    38    1
    41    23    39    1
    42    23    40    1
    43    23    41    1
    44    24    42    1
    45    24    43    1
    46    24    44    1
