@<TRIPOS>MOLECULE
IMPHY015223
 15 14 0 0 0
SMALL
GASTEIGER

@<TRIPOS>ATOM
      1 O           3.7320   -1.2500    0.0000 O.2     1  UNL1       -0.2890
      2 O           4.5981    1.2500    0.0000 O.2     1  UNL1       -0.2893
      3 C           2.8660    0.2500    0.0000 C.3     1  UNL1        0.0105
      4 C           3.7320   -0.2500    0.0000 C.2     1  UNL1        0.1975
      5 C           2.0000   -0.2500    0.0000 C.3     1  UNL1       -0.0581
      6 C           4.5981    0.2500    0.0000 C.2     1  UNL1        0.1950
      7 C           5.4641   -0.2500    0.0000 C.3     1  UNL1        0.0015
      8 H           3.2646    0.7249    0.0000 H       1  UNL1        0.0343
      9 H           2.4675    0.7249    0.0000 H       1  UNL1        0.0343
     10 H           1.6900    0.2869    0.0000 H       1  UNL1        0.0234
     11 H           1.4631   -0.5600    0.0000 H       1  UNL1        0.0234
     12 H           2.3100   -0.7869    0.0000 H       1  UNL1        0.0234
     13 H           5.1541   -0.7869    0.0000 H       1  UNL1        0.0310
     14 H           6.0010   -0.5600    0.0000 H       1  UNL1        0.0310
     15 H           5.7741    0.2869    0.0000 H       1  UNL1        0.0310
@<TRIPOS>BOND
     1     1     4    2
     2     2     6    2
     3     3     4    1
     4     3     5    1
     5     3     8    1
     6     3     9    1
     7     4     6    1
     8     5    10    1
     9     5    11    1
    10     5    12    1
    11     6     7    1
    12     7    13    1
    13     7    14    1
    14     7    15    1
