@<TRIPOS>MOLECULE
IMPHY015298
 18 18 0 0 0
SMALL
GASTEIGER

@<TRIPOS>ATOM
      1 O           2.8090   -0.2652    0.0000 O.2     1  UNL1       -0.4678
      2 C           4.5691    0.0135    0.0000 C.3     1  UNL1        0.0053
      3 C           4.7770   -0.9646    0.0000 C.3     1  UNL1       -0.0491
      4 C           3.6180    0.3226    0.0000 C.ar    1  UNL1        0.1049
      5 C           5.7281   -1.2736    0.0000 C.3     1  UNL1       -0.0649
      6 C           3.3090    1.2736    0.0000 C.ar    1  UNL1       -0.0207
      7 C           2.3090    1.2736    0.0000 C.ar    1  UNL1       -0.0237
      8 C           2.0000    0.3226    0.0000 C.ar    1  UNL1        0.0921
      9 H           5.1887    0.0352    0.0000 H       1  UNL1        0.0343
     10 H           4.6554    0.6275    0.0000 H       1  UNL1        0.0343
     11 H           4.1574   -0.9862    0.0000 H       1  UNL1        0.0267
     12 H           4.6907   -1.5786    0.0000 H       1  UNL1        0.0267
     13 H           5.5365   -1.8633    0.0000 H       1  UNL1        0.0230
     14 H           6.3177   -1.4652    0.0000 H       1  UNL1        0.0230
     15 H           5.9196   -0.6840    0.0000 H       1  UNL1        0.0230
     16 H           3.6734    1.7752    0.0000 H       1  UNL1        0.0652
     17 H           1.9446    1.7752    0.0000 H       1  UNL1        0.0649
     18 H           1.4103    0.1310    0.0000 H       1  UNL1        0.1029
@<TRIPOS>BOND
     1     1     4   ar
     2     1     8   ar
     3     2     3    1
     4     2     4    1
     5     2     9    1
     6     2    10    1
     7     3     5    1
     8     3    11    1
     9     3    12    1
    10     4     6   ar
    11     5    13    1
    12     5    14    1
    13     5    15    1
    14     6     7   ar
    15     6    16    1
    16     7     8   ar
    17     7    17    1
    18     8    18    1
