@<TRIPOS>MOLECULE
IMPHY002922
 42 44 0 0 0
SMALL
GASTEIGER

@<TRIPOS>ATOM
      1 O           7.6279    3.5168    0.0000 O.co2   1  UNL1       -0.5479
      2 O           7.6279    1.7848    0.0000 O.co2   1  UNL1       -0.5479
      3 O           2.0000    3.6508    0.0000 O.2     1  UNL1       -0.2838
      4 O           2.0000    1.6508    0.0000 O.2     1  UNL1       -0.2838
      5 O           6.4298   -3.6508    0.0000 O.co2   1  UNL1       -0.5479
      6 OXT         5.1406   -2.4941    0.0000 O.co2   1  UNL1       -0.5479
      7 O          10.0796   -0.8798    0.0000 O.2     1  UNL1       -0.4791
      8 OXT         9.7225   -2.5746    0.0000 O.2     1  UNL1       -0.4791
      9 N           5.5443    1.8461    0.0000 N.pl3   1  UNL1       -0.2972
     10 N           7.7654   -2.1622    0.0000 N.pl3   1  UNL1       -0.3302
     11 C           6.1279    2.6508    0.0000 C.3     1  UNL1        0.0712
     12 C           5.5443    3.4556    0.0000 C.3     1  UNL1       -0.0016
     13 C           4.5981    3.1508    0.0000 C.2     1  UNL1       -0.0201
     14 C           4.5981    2.1508    0.0000 C.2     1  UNL1        0.0412
     15 C           5.8550    0.8956    0.0000 C.2     1  UNL1       -0.0023
     16 C           6.4763   -1.0055    0.0000 C.3     1  UNL1       -0.0039
     17 CA          6.7870   -1.9560    0.0000 C.3     1  UNL1        0.0643
     18 C           7.1441   -0.2612    0.0000 C.2     1  UNL1       -0.0421
     19 C           3.7320    3.6508    0.0000 C.2     1  UNL1       -0.0061
     20 C           3.7320    1.6508    0.0000 C.2     1  UNL1        0.0106
     21 C           7.1279    2.6508    0.0000 C.2     1  UNL1        0.0627
     22 C           6.8335    0.6893    0.0000 C.2     1  UNL1       -0.0444
     23 C           8.1226   -0.4674    0.0000 C.2     1  UNL1       -0.0307
     24 C           2.8660    3.1508    0.0000 C.2     1  UNL1        0.2256
     25 C           2.8660    2.1508    0.0000 C.2     1  UNL1        0.2270
     26 CA          8.4333   -1.4179    0.0000 C.2     1  UNL1        0.1085
     27 C           6.1191   -2.7003    0.0000 C.2     1  UNL1        0.0622
     28 C           9.4118   -1.6241    0.0000 C.2     1  UNL1        0.2984
     29 H           6.4096    2.0985    0.0000 H       1  UNL1        0.0568
     30 H           6.0817    3.7648    0.0000 H       1  UNL1        0.0336
     31 H           5.2933    4.0225    0.0000 H       1  UNL1        0.0336
     32 H           5.4409    0.4341    0.0000 H       1  UNL1        0.0784
     33 H           6.0937   -0.5176    0.0000 H       1  UNL1        0.0335
     34 H           5.9294   -1.2975    0.0000 H       1  UNL1        0.0335
     35 HA          6.9796   -2.5453    0.0000 H       1  UNL1        0.0562
     36 H           3.7320    4.2708    0.0000 H       1  UNL1        0.0660
     37 H           3.7320    1.0308    0.0000 H       1  UNL1        0.0676
     38 H           7.2475    1.1508    0.0000 H       1  UNL1        0.0633
     39 H           7.9581   -2.7515    0.0000 H       1  UNL1        0.1469
     40 H           8.5367   -0.0059    0.0000 H       1  UNL1        0.0641
     41 H          10.6863   -1.0077    0.0000 H       1  UNL1        0.2953
     42 HXT        10.3291   -2.7025    0.0000 H       1  UNL1        0.2953
@<TRIPOS>UNITY_ATOM_ATTR
1 1
charge -1
5 1
charge -1
@<TRIPOS>BOND
     1     1    21   ar
     2     2    21   ar
     3     3    24    2
     4     4    25    2
     5     5    27   ar
     6     6    27   ar
     7     7    28    1
     8     7    41    1
     9     8    28    1
    10     8    42    1
    11     9    11    1
    12     9    14    1
    13     9    15    1
    14    10    17    1
    15    10    26    1
    16    10    39    1
    17    11    12    1
    18    11    21    1
    19    11    29    1
    20    12    13    1
    21    12    30    1
    22    12    31    1
    23    13    14    1
    24    13    19    2
    25    14    20    2
    26    15    22    2
    27    15    32    1
    28    16    17    1
    29    16    18    1
    30    16    33    1
    31    16    34    1
    32    17    27    1
    33    17    35    1
    34    18    22    1
    35    18    23    2
    36    19    24    1
    37    19    36    1
    38    20    25    1
    39    20    37    1
    40    22    38    1
    41    23    26    1
    42    23    40    1
    43    24    25    1
    44    26    28    2
