@<TRIPOS>MOLECULE
IMPHY006712
 55 60 0 0 0
SMALL
GASTEIGER

@<TRIPOS>ATOM
      1 O           3.2328    1.5236    0.0000 O.3     1  UNL1       -0.3681
      2 O           7.0444   -1.2750    0.0000 O.2     1  UNL1       -0.2964
      3 O           2.0000   -1.5628    0.0000 O.2     1  UNL1       -0.2752
      4 O           5.1292    3.3545    0.0000 O.2     1  UNL1       -0.4970
      5 N           3.7094   -1.4421    0.0000 N.am    1  UNL1       -0.2664
      6 N           6.9920    0.6377    0.0000 N.3     1  UNL1       -0.3013
      7 C           4.4464   -0.7750    0.0000 C.3     1  UNL1        0.0532
      8 C           5.3124   -1.2750    0.0000 C.3     1  UNL1        0.0759
      9 C           4.4464    0.2250    0.0000 C.3     1  UNL1        0.0130
     10 C           5.3124    0.7250    0.0000 C.3     1  UNL1       -0.0016
     11 C           3.5244    0.5803    0.0000 C.3     1  UNL1        0.0726
     12 C           6.1784    0.2250    0.0000 C.3     1  UNL1        0.0138
     13 C           5.1032   -2.2468    0.0000 C.ar    1  UNL1       -0.0108
     14 C           6.1784   -0.7750    0.0000 C.2     1  UNL1        0.1462
     15 C           6.2909   -1.1017    0.0000 C.3     1  UNL1       -0.0219
     16 C           4.1145   -2.3499    0.0000 C.ar    1  UNL1        0.0408
     17 C           2.7361   -0.0154    0.0000 C.3     1  UNL1        0.0511
     18 C           5.4485    1.7030    0.0000 C.2     1  UNL1       -0.0121
     19 C           2.8261   -0.9993    0.0000 C.2     1  UNL1        0.2225
     20 C           6.9466   -0.3550    0.0000 C.3     1  UNL1        0.0002
     21 C           6.4071    1.4411    0.0000 C.3     1  UNL1        0.0235
     22 C           4.7706    2.4210    0.0000 C.2     1  UNL1        0.1235
     23 C           5.7240   -3.0756    0.0000 C.ar    1  UNL1       -0.0558
     24 C           3.7864    2.3413    0.0000 C.3     1  UNL1        0.1051
     25 C           3.6780   -3.2889    0.0000 C.ar    1  UNL1       -0.0400
     26 C           5.3093   -4.0244    0.0000 C.ar    1  UNL1       -0.0614
     27 C           4.2794   -4.1318    0.0000 C.ar    1  UNL1       -0.0600
     28 C           7.9497    0.9254    0.0000 C.3     1  UNL1       -0.0124
     29 C           4.5000    4.1318    0.0000 C.3     1  UNL1        0.0784
     30 H           4.4464   -1.6250    0.0000 H       1  UNL1        0.0521
     31 H           3.7103   -0.2000    0.0000 H       1  UNL1        0.0350
     32 H           6.0485    1.1500    0.0000 H       1  UNL1        0.0355
     33 H           3.8428    1.3684    0.0000 H       1  UNL1        0.0604
     34 H           6.7890    0.1173    0.0000 H       1  UNL1        0.0348
     35 H           6.3905    0.8076    0.0000 H       1  UNL1        0.0348
     36 H           6.2146   -1.7170    0.0000 H       1  UNL1        0.0291
     37 H           6.8565   -1.3556    0.0000 H       1  UNL1        0.0291
     38 H           2.4599    0.5397    0.0000 H       1  UNL1        0.0384
     39 H           2.1397   -0.1846    0.0000 H       1  UNL1        0.0384
     40 H           7.2715   -0.8830    0.0000 H       1  UNL1        0.0427
     41 H           7.5469   -0.1998    0.0000 H       1  UNL1        0.0427
     42 H           6.9935    1.6424    0.0000 H       1  UNL1        0.0474
     43 H           6.3873    2.0608    0.0000 H       1  UNL1        0.0474
     44 H           6.3398   -3.0042    0.0000 H       1  UNL1        0.0621
     45 H           3.8757    2.9549    0.0000 H       1  UNL1        0.0641
     46 H           3.2083    2.5654    0.0000 H       1  UNL1        0.0641
     47 H           3.0606   -3.3460    0.0000 H       1  UNL1        0.0636
     48 H           5.6752   -4.5249    0.0000 H       1  UNL1        0.0618
     49 H           4.0245   -4.6970    0.0000 H       1  UNL1        0.0618
     50 H           8.1280    0.3316    0.0000 H       1  UNL1        0.0391
     51 H           8.5435    1.1037    0.0000 H       1  UNL1        0.0391
     52 H           7.7713    1.5192    0.0000 H       1  UNL1        0.0391
     53 H           4.9819    4.5218    0.0000 H       1  UNL1        0.0660
     54 H           4.1099    4.6137    0.0000 H       1  UNL1        0.0660
     55 H           4.0181    3.7417    0.0000 H       1  UNL1        0.0660
@<TRIPOS>BOND
     1     1    11    1
     2     1    24    1
     3     2    14    2
     4     3    19    2
     5     4    22    1
     6     4    29    1
     7     5     7    1
     8     5    16    1
     9     5    19   am
    10     6    20    1
    11     6    21    1
    12     6    28    1
    13     7     8    1
    14     7     9    1
    15     7    30    1
    16     8    13    1
    17     8    14    1
    18     8    15    1
    19     9    10    1
    20     9    11    1
    21     9    31    1
    22    10    12    1
    23    10    18    1
    24    10    32    1
    25    11    17    1
    26    11    33    1
    27    12    14    1
    28    12    34    1
    29    12    35    1
    30    13    16   ar
    31    13    23   ar
    32    15    20    1
    33    15    36    1
    34    15    37    1
    35    16    25   ar
    36    17    19    1
    37    17    38    1
    38    17    39    1
    39    18    21    1
    40    18    22    2
    41    20    40    1
    42    20    41    1
    43    21    42    1
    44    21    43    1
    45    22    24    1
    46    23    26   ar
    47    23    44    1
    48    24    45    1
    49    24    46    1
    50    25    27   ar
    51    25    47    1
    52    26    27   ar
    53    26    48    1
    54    27    49    1
    55    28    50    1
    56    28    51    1
    57    28    52    1
    58    29    53    1
    59    29    54    1
    60    29    55    1
