@<TRIPOS>MOLECULE
IMPHY001020
 71 75 0 0 0
SMALL
GASTEIGER

@<TRIPOS>ATOM
      1 O          10.7664    2.0654    0.0000 O.3     1  UNL1       -0.4914
      2 O          12.5403    1.0413    0.0000 O.3     1  UNL1       -0.4914
      3 O           2.8698    0.5281    0.0000 O.3     1  UNL1       -0.4914
      4 O           2.8544    2.5280    0.0000 O.3     1  UNL1       -0.4914
      5 N           9.0223   -2.0038    0.0000 N.3     1  UNL1       -0.2948
      6 N           7.2641    1.0411    0.0000 N.ar    1  UNL1       -0.2593
      7 C           7.2223   -0.9830    0.0000 C.3     1  UNL1       -0.0299
      8 C           7.2223   -2.0246    0.0000 C.3     1  UNL1       -0.0252
      9 C           9.0223   -1.0038    0.0000 C.3     1  UNL1        0.0363
     10 C           8.1283   -0.4692    0.0000 C.3     1  UNL1       -0.0297
     11 C           8.1283   -2.5385    0.0000 C.3     1  UNL1        0.0026
     12 C           9.8883   -2.5038    0.0000 C.3     1  UNL1        0.0035
     13 C           9.8883   -0.5038    0.0000 C.ar    1  UNL1       -0.0234
     14 C           6.3582   -0.4797    0.0000 C.3     1  UNL1       -0.0066
     15 C           6.3582   -2.5280    0.0000 C.3     1  UNL1       -0.0516
     16 C          10.7543   -2.0038    0.0000 C.3     1  UNL1       -0.0144
     17 C          10.7543   -1.0038    0.0000 C.ar    1  UNL1       -0.0378
     18 C           6.3620    0.5203    0.0000 C.ar    1  UNL1        0.0493
     19 C           9.8722    0.5377    0.0000 C.ar    1  UNL1       -0.0114
     20 C           6.3620   -3.5280    0.0000 C.3     1  UNL1       -0.0650
     21 C          11.6643   -0.4970    0.0000 C.ar    1  UNL1       -0.0128
     22 C          10.7703    1.0654    0.0000 C.ar    1  UNL1        0.1618
     23 C          11.6724    0.5446    0.0000 C.ar    1  UNL1        0.1618
     24 C           5.4640    1.0481    0.0000 C.ar    1  UNL1        0.0071
     25 C           5.4563    2.0480    0.0000 C.ar    1  UNL1       -0.0111
     26 C           4.6018    0.5414    0.0000 C.ar    1  UNL1       -0.0069
     27 C           7.2561    2.0827    0.0000 C.ar    1  UNL1        0.0285
     28 C           6.3461    2.5896    0.0000 C.ar    1  UNL1       -0.0357
     29 C           4.5864    2.5414    0.0000 C.ar    1  UNL1       -0.0085
     30 C           3.7320    1.0347    0.0000 C.ar    1  UNL1        0.1621
     31 C           3.7243    2.0347    0.0000 C.ar    1  UNL1        0.1621
     32 C          11.6305    2.5688    0.0000 C.3     1  UNL1        0.0790
     33 C          13.4044    0.5379    0.0000 C.3     1  UNL1        0.0790
     34 C           2.0000    1.0214    0.0000 C.3     1  UNL1        0.0790
     35 C           2.8467    3.5280    0.0000 C.3     1  UNL1        0.0790
     36 H           7.2259   -0.3630    0.0000 H       1  UNL1        0.0308
     37 H           6.6847   -1.7157    0.0000 H       1  UNL1        0.0316
     38 H           9.0288   -0.1539    0.0000 H       1  UNL1        0.0512
     39 H           8.5329    0.0006    0.0000 H       1  UNL1        0.0286
     40 H           7.7347    0.0099    0.0000 H       1  UNL1        0.0286
     41 H           7.7347   -3.0175    0.0000 H       1  UNL1        0.0429
     42 H           8.5329   -3.0083    0.0000 H       1  UNL1        0.0429
     43 H           9.4898   -2.9788    0.0000 H       1  UNL1        0.0430
     44 H          10.2868   -2.9788    0.0000 H       1  UNL1        0.0430
     45 H           5.7480   -0.3697    0.0000 H       1  UNL1        0.0331
     46 H           6.1439   -1.0615    0.0000 H       1  UNL1        0.0331
     47 H           6.1439   -1.9462    0.0000 H       1  UNL1        0.0266
     48 H           5.7480   -2.6380    0.0000 H       1  UNL1        0.0266
     49 H          10.9664   -2.5864    0.0000 H       1  UNL1        0.0326
     50 H          11.3649   -1.8962    0.0000 H       1  UNL1        0.0326
     51 H           9.3318    0.8415    0.0000 H       1  UNL1        0.0659
     52 H           5.7420   -3.5304    0.0000 H       1  UNL1        0.0230
     53 H           6.3644   -4.1480    0.0000 H       1  UNL1        0.0230
     54 H           6.9820   -3.5256    0.0000 H       1  UNL1        0.0230
     55 H          12.1976   -0.8132    0.0000 H       1  UNL1        0.0658
     56 H           4.6066   -0.0786    0.0000 H       1  UNL1        0.0662
     57 H           7.7894    2.3989    0.0000 H       1  UNL1        0.0830
     58 H           6.3341    3.2095    0.0000 H       1  UNL1        0.0639
     59 H           4.5817    3.1613    0.0000 H       1  UNL1        0.0661
     60 H          11.9426    2.0330    0.0000 H       1  UNL1        0.0660
     61 H          12.1663    2.8808    0.0000 H       1  UNL1        0.0660
     62 H          11.3185    3.1045    0.0000 H       1  UNL1        0.0660
     63 H          13.0923    0.0022    0.0000 H       1  UNL1        0.0660
     64 H          13.9401    0.2259    0.0000 H       1  UNL1        0.0660
     65 H          13.7165    1.0737    0.0000 H       1  UNL1        0.0660
     66 H           2.3058    1.5607    0.0000 H       1  UNL1        0.0660
     67 H           1.4607    1.3272    0.0000 H       1  UNL1        0.0660
     68 H           1.6942    0.4821    0.0000 H       1  UNL1        0.0660
     69 H           3.4667    3.5328    0.0000 H       1  UNL1        0.0660
     70 H           2.8420    4.1480    0.0000 H       1  UNL1        0.0660
     71 H           2.2268    3.5232    0.0000 H       1  UNL1        0.0660
@<TRIPOS>BOND
     1     1    22    1
     2     1    32    1
     3     2    23    1
     4     2    33    1
     5     3    30    1
     6     3    34    1
     7     4    31    1
     8     4    35    1
     9     5     9    1
    10     5    11    1
    11     5    12    1
    12     6    18   ar
    13     6    27   ar
    14     7     8    1
    15     7    10    1
    16     7    14    1
    17     7    36    1
    18     8    11    1
    19     8    15    1
    20     8    37    1
    21     9    10    1
    22     9    13    1
    23     9    38    1
    24    10    39    1
    25    10    40    1
    26    11    41    1
    27    11    42    1
    28    12    16    1
    29    12    43    1
    30    12    44    1
    31    13    17   ar
    32    13    19   ar
    33    14    18    1
    34    14    45    1
    35    14    46    1
    36    15    20    1
    37    15    47    1
    38    15    48    1
    39    16    17    1
    40    16    49    1
    41    16    50    1
    42    17    21   ar
    43    18    24   ar
    44    19    22   ar
    45    19    51    1
    46    20    52    1
    47    20    53    1
    48    20    54    1
    49    21    23   ar
    50    21    55    1
    51    22    23   ar
    52    24    25   ar
    53    24    26   ar
    54    25    28   ar
    55    25    29   ar
    56    26    30   ar
    57    26    56    1
    58    27    28   ar
    59    27    57    1
    60    28    58    1
    61    29    31   ar
    62    29    59    1
    63    30    31   ar
    64    32    60    1
    65    32    61    1
    66    32    62    1
    67    33    63    1
    68    33    64    1
    69    33    65    1
    70    34    66    1
    71    34    67    1
    72    34    68    1
    73    35    69    1
    74    35    70    1
    75    35    71    1
