@<TRIPOS>MOLECULE
IMPHY008161
 60 62 0 0 0
SMALL
GASTEIGER

@<TRIPOS>ATOM
      1 O           8.9942    2.0000    0.0000 O.2     1  UNL1       -0.2914
      2 O           8.9942   -2.0000    0.0000 O.2     1  UNL1       -0.2917
      3 O          12.5243    1.0241    0.0000 O.3     1  UNL1       -0.5031
      4 O          12.5243   -1.0241    0.0000 O.3     1  UNL1       -0.5028
      5 O          11.6028   -2.5446    0.0000 O.2     1  UNL1       -0.2956
      6 C           8.1282    0.5000    0.0000 C.3     1  UNL1        0.0443
      7 C           8.1282   -0.5000    0.0000 C.3     1  UNL1        0.0385
      8 C           7.2342    1.0347    0.0000 C.3     1  UNL1       -0.0214
      9 C           7.2342   -1.0347    0.0000 C.3     1  UNL1       -0.0209
     10 C           8.9942    1.0000    0.0000 C.2     1  UNL1        0.1710
     11 C           8.9942   -1.0000    0.0000 C.2     1  UNL1        0.1689
     12 C           6.3282   -0.5208    0.0000 C.2     1  UNL1       -0.0724
     13 C           8.1282    1.5000    0.0000 C.3     1  UNL1       -0.0515
     14 C           9.8602    0.5000    0.0000 C.ar    1  UNL1        0.0362
     15 C           6.3282    0.5208    0.0000 C.2     1  UNL1       -0.0838
     16 C           9.8602   -0.5000    0.0000 C.ar    1  UNL1        0.0424
     17 C           5.4641   -1.0241    0.0000 C.3     1  UNL1       -0.0283
     18 C          10.7542    1.0347    0.0000 C.ar    1  UNL1        0.0114
     19 C          10.7542   -1.0347    0.0000 C.ar    1  UNL1        0.0703
     20 C          10.7426    2.0346    0.0000 C.3     1  UNL1       -0.0173
     21 C          11.6602    0.5208    0.0000 C.ar    1  UNL1        0.1631
     22 C           4.5961   -0.5275    0.0000 C.3     1  UNL1       -0.0308
     23 C          11.6602   -0.5208    0.0000 C.ar    1  UNL1        0.1696
     24 C          11.6028    2.5446    0.0000 C.3     1  UNL1       -0.0585
     25 C           9.8709    2.5246    0.0000 C.3     1  UNL1       -0.0585
     26 C          10.7426   -2.0346    0.0000 C.2     1  UNL1        0.1545
     27 C           3.7320   -1.0308    0.0000 C.2     1  UNL1       -0.0850
     28 C           2.8641   -0.5342    0.0000 C.2     1  UNL1       -0.0796
     29 C           2.0000   -1.0375    0.0000 C.3     1  UNL1       -0.0440
     30 C           2.8602    0.4658    0.0000 C.3     1  UNL1       -0.0440
     31 H           8.1330   -1.1200    0.0000 H       1  UNL1        0.0394
     32 H           7.6388    1.5044    0.0000 H       1  UNL1        0.0317
     33 H           6.8406    1.5137    0.0000 H       1  UNL1        0.0317
     34 H           6.8406   -1.5137    0.0000 H       1  UNL1        0.0317
     35 H           7.6388   -1.5044    0.0000 H       1  UNL1        0.0317
     36 H           8.7482    1.5000    0.0000 H       1  UNL1        0.0239
     37 H           8.1282    2.1200    0.0000 H       1  UNL1        0.0239
     38 H           7.5082    1.5000    0.0000 H       1  UNL1        0.0239
     39 H           5.7924    0.8329    0.0000 H       1  UNL1        0.0572
     40 H           5.0674   -1.5006    0.0000 H       1  UNL1        0.0313
     41 H           5.8644   -1.4976    0.0000 H       1  UNL1        0.0313
     42 H          10.7354    2.6546    0.0000 H       1  UNL1        0.0345
     43 H           4.9928   -0.0510    0.0000 H       1  UNL1        0.0310
     44 H           4.1958   -0.0541    0.0000 H       1  UNL1        0.0310
     45 H          11.9190    2.0113    0.0000 H       1  UNL1        0.0235
     46 H          12.1361    2.8608    0.0000 H       1  UNL1        0.0235
     47 H          11.2866    3.0779    0.0000 H       1  UNL1        0.0235
     48 H          10.1746    3.0650    0.0000 H       1  UNL1        0.0235
     49 H           9.3304    2.8283    0.0000 H       1  UNL1        0.0235
     50 H           9.5671    1.9841    0.0000 H       1  UNL1        0.0235
     51 H          10.2021   -2.3384    0.0000 H       1  UNL1        0.1083
     52 H           3.7344   -1.6508    0.0000 H       1  UNL1        0.0572
     53 H          13.0625    0.7162    0.0000 H       1  UNL1        0.2923
     54 H          13.0625   -0.7162    0.0000 H       1  UNL1        0.2923
     55 H           3.4802    0.4682    0.0000 H       1  UNL1        0.0274
     56 H           2.8578    1.0858    0.0000 H       1  UNL1        0.0274
     57 H           1.6879   -0.5018    0.0000 H       1  UNL1        0.0274
     58 H           1.4643   -1.3496    0.0000 H       1  UNL1        0.0274
     59 H           2.3121   -1.5732    0.0000 H       1  UNL1        0.0274
     60 H           2.2402    0.4634    0.0000 H       1  UNL1        0.0274
@<TRIPOS>BOND
     1     1    10    2
     2     2    11    2
     3     3    21    1
     4     3    53    1
     5     4    23    1
     6     4    54    1
     7     5    26    2
     8     6     7    1
     9     6     8    1
    10     6    10    1
    11     6    13    1
    12     7     9    1
    13     7    11    1
    14     7    31    1
    15     8    15    1
    16     8    32    1
    17     8    33    1
    18     9    12    1
    19     9    34    1
    20     9    35    1
    21    10    14    1
    22    11    16    1
    23    12    15    2
    24    12    17    1
    25    13    36    1
    26    13    37    1
    27    13    38    1
    28    14    16   ar
    29    14    18   ar
    30    15    39    1
    31    16    19   ar
    32    17    22    1
    33    17    40    1
    34    17    41    1
    35    18    20    1
    36    18    21   ar
    37    19    23   ar
    38    19    26    1
    39    20    24    1
    40    20    25    1
    41    20    42    1
    42    21    23   ar
    43    22    27    1
    44    22    43    1
    45    22    44    1
    46    24    45    1
    47    24    46    1
    48    24    47    1
    49    25    48    1
    50    25    49    1
    51    25    50    1
    52    26    51    1
    53    27    28    2
    54    27    52    1
    55    28    29    1
    56    28    30    1
    57    29    57    1
    58    29    58    1
    59    29    59    1
    60    30    55    1
    61    30    56    1
    62    30    60    1
