@<TRIPOS>MOLECULE
IMPHY012520
 66 70 0 0 0
SMALL
GASTEIGER

@<TRIPOS>ATOM
      1 N           9.0503    2.3457    0.0000 N.3     1  UNL1       -0.3018
      2 N           2.8641   -2.3457    0.0000 N.3     1  UNL1       -0.3051
      3 C           8.2572    0.7066    0.0000 C.3     1  UNL1       -0.0092
      4 C           8.2572   -0.2934    0.0000 C.3     1  UNL1       -0.0305
      5 C           9.2034    1.0114    0.0000 C.3     1  UNL1       -0.0186
      6 C           7.3912   -0.7934    0.0000 C.3     1  UNL1       -0.0306
      7 C           6.5251   -0.2934    0.0000 C.3     1  UNL1       -0.0285
      8 C           7.3912    1.2066    0.0000 C.3     1  UNL1       -0.0454
      9 C           9.2034   -0.5981    0.0000 C.3     1  UNL1       -0.0491
     10 C           8.1590    1.6899    0.0000 C.3     1  UNL1        0.0051
     11 C           9.7870    0.2066    0.0000 C.3     1  UNL1       -0.0480
     12 C           9.6975    1.8672    0.0000 C.3     1  UNL1        0.0107
     13 C           6.5251    0.7066    0.0000 C.3     1  UNL1       -0.0486
     14 C           5.6151   -0.8002    0.0000 C.3     1  UNL1       -0.0079
     15 C           7.4072   -1.8349    0.0000 C.3     1  UNL1       -0.0311
     16 C           5.6071   -1.8418    0.0000 C.2     1  UNL1       -0.0658
     17 C           4.6883   -0.2361    0.0000 C.3     1  UNL1       -0.0422
     18 C           6.5092   -2.3626    0.0000 C.2     1  UNL1       -0.0839
     19 C          10.6488    2.1754    0.0000 C.3     1  UNL1       -0.0492
     20 C           5.6228    0.1997    0.0000 C.3     1  UNL1       -0.0556
     21 C           4.6717   -2.3916    0.0000 C.3     1  UNL1       -0.0156
     22 C           3.7404   -0.7641    0.0000 C.3     1  UNL1       -0.0363
     23 C           9.0529    3.3457    0.0000 C.3     1  UNL1       -0.0125
     24 C           3.7320   -1.8490    0.0000 C.3     1  UNL1        0.0135
     25 C           2.0000   -1.8424    0.0000 C.3     1  UNL1       -0.0128
     26 C           2.8602   -3.3457    0.0000 C.3     1  UNL1       -0.0128
     27 H           8.3471   -1.1386    0.0000 H       1  UNL1        0.0309
     28 H          10.0522    1.0555    0.0000 H       1  UNL1        0.0322
     29 H           8.1305   -1.2127    0.0000 H       1  UNL1        0.0309
     30 H           7.2612    0.1316    0.0000 H       1  UNL1        0.0312
     31 H           7.7897    1.6816    0.0000 H       1  UNL1        0.0271
     32 H           6.9926    1.6816    0.0000 H       1  UNL1        0.0271
     33 H           8.9524   -1.1650    0.0000 H       1  UNL1        0.0268
     34 H           9.7408   -0.9073    0.0000 H       1  UNL1        0.0268
     35 H           7.8859    2.2466    0.0000 H       1  UNL1        0.0432
     36 H           7.5628    1.5199    0.0000 H       1  UNL1        0.0432
     37 H          10.2479   -0.2081    0.0000 H       1  UNL1        0.0269
     38 H          10.2479    0.6214    0.0000 H       1  UNL1        0.0269
     39 H           9.7973    2.4791    0.0000 H       1  UNL1        0.0463
     40 H           6.3131    1.2892    0.0000 H       1  UNL1        0.0268
     41 H           5.9145    0.5990    0.0000 H       1  UNL1        0.0268
     42 H           7.6252   -2.4153    0.0000 H       1  UNL1        0.0310
     43 H           8.0164   -1.7194    0.0000 H       1  UNL1        0.0310
     44 H           5.0965    0.2305    0.0000 H       1  UNL1        0.0274
     45 H           4.2984    0.2459    0.0000 H       1  UNL1        0.0274
     46 H           6.5116   -2.9826    0.0000 H       1  UNL1        0.0572
     47 H          10.8399    1.5855    0.0000 H       1  UNL1        0.0245
     48 H          11.2386    2.3664    0.0000 H       1  UNL1        0.0245
     49 H          10.4577    2.7652    0.0000 H       1  UNL1        0.0245
     50 H           6.2428    0.1950    0.0000 H       1  UNL1        0.0238
     51 H           5.6276    0.8197    0.0000 H       1  UNL1        0.0238
     52 H           5.0028    0.2045    0.0000 H       1  UNL1        0.0238
     53 H           4.2744   -2.8675    0.0000 H       1  UNL1        0.0325
     54 H           5.0726   -2.8644    0.0000 H       1  UNL1        0.0325
     55 H           3.5358   -0.1788    0.0000 H       1  UNL1        0.0281
     56 H           3.1288   -0.8655    0.0000 H       1  UNL1        0.0281
     57 H           9.6729    3.3441    0.0000 H       1  UNL1        0.0391
     58 H           9.0545    3.9657    0.0000 H       1  UNL1        0.0391
     59 H           8.4329    3.3473    0.0000 H       1  UNL1        0.0391
     60 H           3.7308   -2.4691    0.0000 H       1  UNL1        0.0465
     61 H           2.3121   -1.3066    0.0000 H       1  UNL1        0.0391
     62 H           1.4643   -1.5303    0.0000 H       1  UNL1        0.0391
     63 H           1.6879   -2.3781    0.0000 H       1  UNL1        0.0391
     64 H           2.2402   -3.3433    0.0000 H       1  UNL1        0.0391
     65 H           2.8578   -3.9657    0.0000 H       1  UNL1        0.0391
     66 H           3.4802   -3.3481    0.0000 H       1  UNL1        0.0391
@<TRIPOS>BOND
     1     1    10    1
     2     1    12    1
     3     1    23    1
     4    24     2    1
     5     2    25    1
     6     2    26    1
     7     3     4    1
     8     3     5    1
     9     3     8    1
    10     3    10    1
    11     4     6    1
    12     4     9    1
    13     4    27    1
    14     5    11    1
    15     5    12    1
    16     5    28    1
    17     6     7    1
    18     6    15    1
    19     6    29    1
    20     7    13    1
    21     7    14    1
    22     7    30    1
    23     8    13    1
    24     8    31    1
    25     8    32    1
    26     9    11    1
    27     9    33    1
    28     9    34    1
    29    10    35    1
    30    10    36    1
    31    11    37    1
    32    11    38    1
    33    12    19    1
    34    12    39    1
    35    13    40    1
    36    13    41    1
    37    14    16    1
    38    14    17    1
    39    14    20    1
    40    15    18    1
    41    15    42    1
    42    15    43    1
    43    16    18    2
    44    16    21    1
    45    17    22    1
    46    17    44    1
    47    17    45    1
    48    18    46    1
    49    19    47    1
    50    19    48    1
    51    19    49    1
    52    20    50    1
    53    20    51    1
    54    20    52    1
    55    21    24    1
    56    21    53    1
    57    21    54    1
    58    22    24    1
    59    22    55    1
    60    22    56    1
    61    23    57    1
    62    23    58    1
    63    23    59    1
    64    24    60    1
    65    25    61    1
    66    25    62    1
    67    25    63    1
    68    26    64    1
    69    26    65    1
    70    26    66    1
