@<TRIPOS>MOLECULE
IMPHY006345
 44 48 0 0 0
SMALL
GASTEIGER

@<TRIPOS>ATOM
      1 O           3.7670    0.5550    0.0000 O.3     1  UNL1       -0.3768
      2 O           4.8449    2.2533    0.0000 O.3     1  UNL1       -0.3852
      3 O           2.6079   -0.9041    0.0000 O.3     1  UNL1       -0.4526
      4 O           2.6079   -2.5805    0.0000 O.3     1  UNL1       -0.4526
      5 N           7.1256   -1.2423    0.0000 N.3     1  UNL1       -0.2886
      6 C           6.2596   -0.7423    0.0000 C.3     1  UNL1        0.0714
      7 C           6.4688    0.2295    0.0000 C.2     1  UNL1       -0.0452
      8 C           5.2440   -0.5400    0.0000 C.3     1  UNL1        0.0027
      9 C           7.8626   -0.5752    0.0000 C.3     1  UNL1        0.0038
     10 C           5.3935   -1.2423    0.0000 C.ar    1  UNL1       -0.0161
     11 C           7.4575    0.3326    0.0000 C.3     1  UNL1       -0.0167
     12 C           4.7664    0.5214    0.0000 C.3     1  UNL1        0.0900
     13 C           7.1256   -2.2423    0.0000 C.3     1  UNL1        0.0040
     14 C           5.3086    1.3674    0.0000 C.3     1  UNL1        0.0998
     15 C           6.1666    1.2199    0.0000 C.2     1  UNL1       -0.0521
     16 C           5.3935   -2.2423    0.0000 C.ar    1  UNL1       -0.0372
     17 C           6.2596   -2.7423    0.0000 C.3     1  UNL1       -0.0144
     18 C           4.4996   -0.7076    0.0000 C.ar    1  UNL1       -0.0106
     19 C           4.4996   -2.7770    0.0000 C.ar    1  UNL1       -0.0126
     20 C           3.5935   -1.2215    0.0000 C.ar    1  UNL1        0.1666
     21 C           3.5935   -2.2631    0.0000 C.ar    1  UNL1        0.1665
     22 C           3.2964    1.4374    0.0000 C.3     1  UNL1        0.0369
     23 C           2.0000   -1.7423    0.0000 C.3     1  UNL1        0.2332
     24 H           4.6385   -0.6731    0.0000 H       1  UNL1        0.0316
     25 H           5.2502   -1.1600    0.0000 H       1  UNL1        0.0316
     26 H           8.2280   -1.0761    0.0000 H       1  UNL1        0.0430
     27 H           8.3991   -0.2644    0.0000 H       1  UNL1        0.0430
     28 H           8.0471    0.5243    0.0000 H       1  UNL1        0.0323
     29 H           7.3288    0.9391    0.0000 H       1  UNL1        0.0323
     30 H           4.4781    1.0703    0.0000 H       1  UNL1        0.0626
     31 H           7.3376   -2.8249    0.0000 H       1  UNL1        0.0430
     32 H           7.7362   -2.1346    0.0000 H       1  UNL1        0.0430
     33 H           5.6736    1.8686    0.0000 H       1  UNL1        0.0664
     34 H           6.5765    1.6850    0.0000 H       1  UNL1        0.0599
     35 H           5.8610   -3.2172    0.0000 H       1  UNL1        0.0326
     36 H           6.6581   -3.2172    0.0000 H       1  UNL1        0.0326
     37 H           4.5068   -0.0877    0.0000 H       1  UNL1        0.0659
     38 H           4.5068   -3.3969    0.0000 H       1  UNL1        0.0658
     39 H           5.1768    2.7770    0.0000 H       1  UNL1        0.2103
     40 H           3.8434    1.7291    0.0000 H       1  UNL1        0.0524
     41 H           3.0046    1.9844    0.0000 H       1  UNL1        0.0524
     42 H           2.7493    1.1456    0.0000 H       1  UNL1        0.0524
     43 H           1.5391   -1.3276    0.0000 H       1  UNL1        0.1166
     44 H           1.5391   -2.1570    0.0000 H       1  UNL1        0.1166
@<TRIPOS>BOND
     1     1    12    1
     2     1    22    1
     3     2    14    1
     4     2    39    1
     5     3    20    1
     6     3    23    1
     7     4    21    1
     8     4    23    1
     9     5     6    1
    10     5     9    1
    11     5    13    1
    12     6     7    1
    13     6     8    1
    14     6    10    1
    15     7    11    1
    16     7    15    2
    17     8    12    1
    18     8    24    1
    19     8    25    1
    20     9    11    1
    21     9    26    1
    22     9    27    1
    23    10    16   ar
    24    10    18   ar
    25    11    28    1
    26    11    29    1
    27    12    14    1
    28    12    30    1
    29    13    17    1
    30    13    31    1
    31    13    32    1
    32    14    15    1
    33    14    33    1
    34    15    34    1
    35    16    17    1
    36    16    19   ar
    37    17    35    1
    38    17    36    1
    39    18    20   ar
    40    18    37    1
    41    19    21   ar
    42    19    38    1
    43    20    21   ar
    44    22    40    1
    45    22    41    1
    46    22    42    1
    47    23    43    1
    48    23    44    1
