@<TRIPOS>MOLECULE
IMPHY013265
 64 67 0 0 0
SMALL
GASTEIGER

@<TRIPOS>ATOM
      1 O           2.0000   -2.0690    0.0000 O.2     1  UNL1       -0.2968
      2 O           7.9821    2.9828    0.0000 O.2     1  UNL1       -0.2974
      3 C           6.5271   -0.5167    0.0000 C.3     1  UNL1       -0.0231
      4 C           7.3931   -0.0167    0.0000 C.3     1  UNL1       -0.0229
      5 C           5.6610   -0.0167    0.0000 C.3     1  UNL1       -0.0294
      6 C           4.7510   -0.5236    0.0000 C.3     1  UNL1       -0.0246
      7 C           7.3931    0.9833    0.0000 C.3     1  UNL1       -0.0256
      8 C           4.7430   -1.5652    0.0000 C.3     1  UNL1       -0.0235
      9 C           6.5431   -1.5582    0.0000 C.3     1  UNL1       -0.0466
     10 C           5.6610    0.9833    0.0000 C.3     1  UNL1       -0.0489
     11 C           8.3393   -0.3215    0.0000 C.3     1  UNL1       -0.0462
     12 C           6.5271    1.4833    0.0000 C.3     1  UNL1       -0.0488
     13 C           5.6451   -2.0860    0.0000 C.3     1  UNL1       -0.0483
     14 C           8.3393    1.2880    0.0000 C.3     1  UNL1        0.0206
     15 C           3.8076   -2.1149    0.0000 C.3     1  UNL1        0.0267
     16 C           3.8242    0.0405    0.0000 C.3     1  UNL1       -0.0404
     17 C           8.9229    0.4833    0.0000 C.3     1  UNL1       -0.0427
     18 C           7.1698   -1.2828    0.0000 C.3     1  UNL1       -0.0588
     19 C           7.7352   -0.9564    0.0000 C.3     1  UNL1       -0.0588
     20 C           4.7587    0.4764    0.0000 C.3     1  UNL1       -0.0590
     21 C           2.8763   -0.4874    0.0000 C.3     1  UNL1        0.0069
     22 C           2.8680   -1.5724    0.0000 C.2     1  UNL1        0.1392
     23 C           8.6500    2.2385    0.0000 C.2     1  UNL1        0.1336
     24 C           3.3109   -2.9828    0.0000 C.3     1  UNL1       -0.0528
     25 C           4.3109   -2.9790    0.0000 C.3     1  UNL1       -0.0528
     26 C           9.6285    2.4448    0.0000 C.3     1  UNL1       -0.0058
     27 H           6.3972    0.4083    0.0000 H       1  UNL1        0.0312
     28 H           7.4830    1.8285    0.0000 H       1  UNL1        0.0313
     29 H           4.7463   -2.4152    0.0000 H       1  UNL1        0.0315
     30 H           6.7612   -2.1386    0.0000 H       1  UNL1        0.0271
     31 H           7.1523   -1.4427    0.0000 H       1  UNL1        0.0271
     32 H           5.4490    1.5659    0.0000 H       1  UNL1        0.0268
     33 H           5.0504    0.8756    0.0000 H       1  UNL1        0.0268
     34 H           8.0883   -0.8884    0.0000 H       1  UNL1        0.0271
     35 H           8.8767   -0.6307    0.0000 H       1  UNL1        0.0271
     36 H           6.9256    1.9582    0.0000 H       1  UNL1        0.0268
     37 H           6.1285    1.9582    0.0000 H       1  UNL1        0.0268
     38 H           5.2478   -2.5620    0.0000 H       1  UNL1        0.0269
     39 H           6.0460   -2.5589    0.0000 H       1  UNL1        0.0269
     40 H           7.9018    1.7274    0.0000 H       1  UNL1        0.0380
     41 H           4.2324    0.5072    0.0000 H       1  UNL1        0.0275
     42 H           3.4343    0.5226    0.0000 H       1  UNL1        0.0275
     43 H           9.3838    0.0686    0.0000 H       1  UNL1        0.0272
     44 H           9.3838    0.8980    0.0000 H       1  UNL1        0.0272
     45 H           6.6949   -1.6813    0.0000 H       1  UNL1        0.0235
     46 H           7.5684   -1.7577    0.0000 H       1  UNL1        0.0235
     47 H           7.6448   -0.8842    0.0000 H       1  UNL1        0.0235
     48 H           7.1526   -1.1685    0.0000 H       1  UNL1        0.0235
     49 H           7.9473   -1.5390    0.0000 H       1  UNL1        0.0235
     50 H           8.3178   -0.7443    0.0000 H       1  UNL1        0.0235
     51 H           5.3787    0.4716    0.0000 H       1  UNL1        0.0235
     52 H           4.7635    1.0964    0.0000 H       1  UNL1        0.0235
     53 H           4.1388    0.4812    0.0000 H       1  UNL1        0.0235
     54 H           2.6718    0.0979    0.0000 H       1  UNL1        0.0342
     55 H           2.2647   -0.5888    0.0000 H       1  UNL1        0.0342
     56 H           2.7728   -2.6749    0.0000 H       1  UNL1        0.0239
     57 H           3.0030   -3.5210    0.0000 H       1  UNL1        0.0239
     58 H           3.8490   -3.2908    0.0000 H       1  UNL1        0.0239
     59 H           3.7752   -3.2910    0.0000 H       1  UNL1        0.0239
     60 H           4.6230   -3.5147    0.0000 H       1  UNL1        0.0239
     61 H           4.8466   -2.6669    0.0000 H       1  UNL1        0.0239
     62 H           9.7563    1.8381    0.0000 H       1  UNL1        0.0306
     63 H          10.2351    2.5726    0.0000 H       1  UNL1        0.0306
     64 H           9.5006    3.0514    0.0000 H       1  UNL1        0.0306
@<TRIPOS>BOND
     1     1    22    2
     2     2    23    2
     3     3     4    1
     4     3     5    1
     5     3     9    1
     6     3    18    1
     7     4     7    1
     8     4    11    1
     9     4    19    1
    10     5     6    1
    11     5    10    1
    12     5    27    1
    13     6     8    1
    14     6    16    1
    15     6    20    1
    16     7    12    1
    17     7    14    1
    18     7    28    1
    19     8    13    1
    20     8    15    1
    21     8    29    1
    22     9    13    1
    23     9    30    1
    24     9    31    1
    25    10    12    1
    26    10    32    1
    27    10    33    1
    28    11    17    1
    29    11    34    1
    30    11    35    1
    31    12    36    1
    32    12    37    1
    33    13    38    1
    34    13    39    1
    35    14    17    1
    36    14    23    1
    37    14    40    1
    38    15    22    1
    39    15    24    1
    40    15    25    1
    41    16    21    1
    42    16    41    1
    43    16    42    1
    44    17    43    1
    45    17    44    1
    46    18    45    1
    47    18    46    1
    48    18    47    1
    49    19    48    1
    50    19    49    1
    51    19    50    1
    52    20    51    1
    53    20    52    1
    54    20    53    1
    55    21    22    1
    56    21    54    1
    57    21    55    1
    58    23    26    1
    59    24    56    1
    60    24    57    1
    61    24    58    1
    62    25    59    1
    63    25    60    1
    64    25    61    1
    65    26    62    1
    66    26    63    1
    67    26    64    1
