@<TRIPOS>MOLECULE
IMPHY017300
 27 26 0 0 0
SMALL
GASTEIGER

@<TRIPOS>ATOM
      1 O           5.4641   -0.5950    0.0000 O.3     1  UNL1       -0.3912
      2 O           8.0622    0.9050    0.0000 O.3     1  UNL1       -0.4679
      3 O           7.1962   -0.5950    0.0000 O.2     1  UNL1       -0.2508
      4 C           4.5981    0.9050    0.0000 C.3     1  UNL1       -0.0263
      5 C           5.4641    0.4050    0.0000 C.3     1  UNL1        0.0653
      6 C           3.7320    0.4050    0.0000 C.3     1  UNL1       -0.0510
      7 C           2.8660    0.9050    0.0000 C.3     1  UNL1       -0.0558
      8 C           6.3301    0.9050    0.0000 C.3     1  UNL1        0.0708
      9 C           2.0000    0.4050    0.0000 C.3     1  UNL1       -0.0653
     10 C           7.1962    0.4050    0.0000 C.2     1  UNL1        0.3093
     11 C           8.9282    0.4050    0.0000 C.3     1  UNL1        0.0817
     12 H           4.9966    1.3800    0.0000 H       1  UNL1        0.0290
     13 H           4.1996    1.3800    0.0000 H       1  UNL1        0.0290
     14 H           6.0010    0.0950    0.0000 H       1  UNL1        0.0598
     15 H           3.3335   -0.0699    0.0000 H       1  UNL1        0.0266
     16 H           4.1306   -0.0699    0.0000 H       1  UNL1        0.0266
     17 H           3.2646    1.3800    0.0000 H       1  UNL1        0.0263
     18 H           2.4675    1.3800    0.0000 H       1  UNL1        0.0263
     19 H           6.7287    1.3800    0.0000 H       1  UNL1        0.0403
     20 H           5.9316    1.3800    0.0000 H       1  UNL1        0.0403
     21 H           1.6900    0.9419    0.0000 H       1  UNL1        0.0230
     22 H           1.4631    0.0950    0.0000 H       1  UNL1        0.0230
     23 H           2.3100   -0.1319    0.0000 H       1  UNL1        0.0230
     24 H           4.9272   -0.9050    0.0000 H       1  UNL1        0.2098
     25 H           8.6182   -0.1319    0.0000 H       1  UNL1        0.0661
     26 H           9.4651    0.0950    0.0000 H       1  UNL1        0.0661
     27 H           9.2382    0.9419    0.0000 H       1  UNL1        0.0661
@<TRIPOS>BOND
     1     1     5    1
     2     1    24    1
     3     2    10    1
     4     2    11    1
     5     3    10    2
     6     4     5    1
     7     4     6    1
     8     4    12    1
     9     4    13    1
    10     5     8    1
    11     5    14    1
    12     6     7    1
    13     6    15    1
    14     6    16    1
    15     7     9    1
    16     7    17    1
    17     7    18    1
    18     8    10    1
    19     8    19    1
    20     8    20    1
    21     9    21    1
    22     9    22    1
    23     9    23    1
    24    11    25    1
    25    11    26    1
    26    11    27    1
