@<TRIPOS>MOLECULE
IMPHY011282
 48 51 0 0 0
SMALL
GASTEIGER

@<TRIPOS>ATOM
      1 O           7.2762   -2.5450    0.0000 O.2     1  UNL1       -0.4916
      2 O           2.8680    0.0001    0.0000 O.3     1  UNL1       -0.4914
      3 O           9.0501   -1.5209    0.0000 O.2     1  UNL1       -0.2840
      4 O           2.8680    2.0484    0.0000 O.3     1  UNL1       -0.4914
      5 N           6.8422    1.5152    0.0000 N.3     1  UNL1       -0.2983
      6 C           6.3981    0.0242    0.0000 C.3     1  UNL1        0.0418
      7 C           7.2641    1.5242    0.0000 C.3     1  UNL1        0.0368
      8 C           7.2641    0.5242    0.0000 C.2     1  UNL1       -0.0341
      9 C           6.1950    0.3941    0.0000 C.3     1  UNL1       -0.0231
     10 C           5.5320    0.5242    0.0000 C.ar    1  UNL1       -0.0263
     11 C           6.3981    2.0242    0.0000 C.3     1  UNL1       -0.0077
     12 C           6.1114    1.1898    0.0000 C.3     1  UNL1        0.0006
     13 C           5.5320    1.5242    0.0000 C.ar    1  UNL1       -0.0376
     14 C           6.3820   -1.0173    0.0000 C.2     1  UNL1       -0.0239
     15 C           8.1741    0.0174    0.0000 C.2     1  UNL1       -0.0094
     16 C           4.6381   -0.0104    0.0000 C.ar    1  UNL1       -0.0117
     17 C           7.0501    2.4933    0.0000 C.3     1  UNL1       -0.0122
     18 C           7.2800   -1.5450    0.0000 C.2     1  UNL1        0.1638
     19 C           4.6381    2.0589    0.0000 C.ar    1  UNL1       -0.0128
     20 C           8.1821   -1.0242    0.0000 C.2     1  UNL1        0.2200
     21 C           3.7320    0.5034    0.0000 C.ar    1  UNL1        0.1618
     22 C           3.7320    1.5450    0.0000 C.ar    1  UNL1        0.1618
     23 C           8.1403   -3.0484    0.0000 C.3     1  UNL1        0.0790
     24 C           2.0000    0.4967    0.0000 C.3     1  UNL1        0.0790
     25 C           2.8718    3.0484    0.0000 C.3     1  UNL1        0.0790
     26 H           7.6891    2.2603    0.0000 H       1  UNL1        0.0512
     27 H           5.6002    0.5693    0.0000 H       1  UNL1        0.0292
     28 H           6.7867    0.5794    0.0000 H       1  UNL1        0.0292
     29 H           6.7966    2.4992    0.0000 H       1  UNL1        0.0332
     30 H           5.9995    2.4992    0.0000 H       1  UNL1        0.0332
     31 H           5.9198    1.7794    0.0000 H       1  UNL1        0.0427
     32 H           5.5049    1.0608    0.0000 H       1  UNL1        0.0427
     33 H           5.8415   -1.3210    0.0000 H       1  UNL1        0.0622
     34 H           8.7074    0.3336    0.0000 H       1  UNL1        0.0657
     35 H           4.6453   -0.6304    0.0000 H       1  UNL1        0.0658
     36 H           7.6566    2.3644    0.0000 H       1  UNL1        0.0391
     37 H           7.1790    3.0997    0.0000 H       1  UNL1        0.0391
     38 H           6.4436    2.6222    0.0000 H       1  UNL1        0.0391
     39 H           4.6453    2.6788    0.0000 H       1  UNL1        0.0658
     40 H           7.8282   -3.5841    0.0000 H       1  UNL1        0.0660
     41 H           8.6760   -3.3604    0.0000 H       1  UNL1        0.0660
     42 H           8.4523   -2.5126    0.0000 H       1  UNL1        0.0660
     43 H           2.3079    1.0349    0.0000 H       1  UNL1        0.0660
     44 H           1.4619    0.8047    0.0000 H       1  UNL1        0.0660
     45 H           1.6921   -0.0414    0.0000 H       1  UNL1        0.0660
     46 H           3.4918    3.0460    0.0000 H       1  UNL1        0.0660
     47 H           2.8742    3.6684    0.0000 H       1  UNL1        0.0660
     48 H           2.2518    3.0508    0.0000 H       1  UNL1        0.0660
@<TRIPOS>BOND
     1     1    18    1
     2     1    23    1
     3     2    21    1
     4     2    24    1
     5     3    20    2
     6     4    22    1
     7     4    25    1
     8     5     7    1
     9     5    12    1
    10     5    17    1
    11     6     8    1
    12     6     9    1
    13     6    10    1
    14     6    14    1
    15     7     8    1
    16     7    11    1
    17     7    26    1
    18     8    15    2
    19     9    12    1
    20     9    27    1
    21     9    28    1
    22    10    13   ar
    23    10    16   ar
    24    11    13    1
    25    11    29    1
    26    11    30    1
    27    12    31    1
    28    12    32    1
    29    13    19   ar
    30    14    18    2
    31    14    33    1
    32    15    20    1
    33    15    34    1
    34    16    21   ar
    35    16    35    1
    36    17    36    1
    37    17    37    1
    38    17    38    1
    39    18    20    1
    40    19    22   ar
    41    19    39    1
    42    21    22   ar
    43    23    40    1
    44    23    41    1
    45    23    42    1
    46    24    43    1
    47    24    44    1
    48    24    45    1
    49    25    46    1
    50    25    47    1
    51    25    48    1
