@<TRIPOS>MOLECULE
IMPHY014179
 38 39 0 0 0
SMALL
GASTEIGER

@<TRIPOS>ATOM
      1 O           2.8660   -3.6550    0.0000 O.3     1  UNL1       -0.4914
      2 O           4.5981   -4.6550    0.0000 O.3     1  UNL1       -0.5033
      3 O           9.7942    4.3450    0.0000 O.3     1  UNL1       -0.5068
      4 O           4.5981    1.3450    0.0000 O.2     1  UNL1       -0.2879
      5 C           4.5981   -1.6550    0.0000 C.ar    1  UNL1       -0.0212
      6 C           3.7320   -2.1550    0.0000 C.ar    1  UNL1       -0.0092
      7 C           3.7320   -3.1550    0.0000 C.ar    1  UNL1        0.1618
      8 C           5.4641   -2.1550    0.0000 C.ar    1  UNL1       -0.0509
      9 C           4.5981   -3.6550    0.0000 C.ar    1  UNL1        0.1585
     10 C           5.4641   -3.1550    0.0000 C.ar    1  UNL1       -0.0160
     11 C           4.5981   -0.6550    0.0000 C.2     1  UNL1       -0.0509
     12 C           7.1962    2.8450    0.0000 C.ar    1  UNL1       -0.0247
     13 C           6.3301    2.3450    0.0000 C.2     1  UNL1       -0.0510
     14 C           7.1962    3.8450    0.0000 C.ar    1  UNL1       -0.0511
     15 C           8.0622    2.3450    0.0000 C.ar    1  UNL1       -0.0511
     16 C           5.4641   -0.1550    0.0000 C.2     1  UNL1       -0.0144
     17 C           6.3301    1.3450    0.0000 C.2     1  UNL1       -0.0144
     18 C           5.4641    0.8450    0.0000 C.2     1  UNL1        0.1790
     19 C           8.0622    4.3450    0.0000 C.ar    1  UNL1       -0.0196
     20 C           8.9282    2.8450    0.0000 C.ar    1  UNL1       -0.0196
     21 C           8.9282    3.8450    0.0000 C.ar    1  UNL1        0.1169
     22 C           2.0000   -3.1550    0.0000 C.3     1  UNL1        0.0790
     23 H           3.1951   -1.8450    0.0000 H       1  UNL1        0.0661
     24 H           6.0010   -1.8450    0.0000 H       1  UNL1        0.0625
     25 H           6.0010   -3.4650    0.0000 H       1  UNL1        0.0655
     26 H           4.0611   -0.3450    0.0000 H       1  UNL1        0.0625
     27 H           6.6592    4.1550    0.0000 H       1  UNL1        0.0625
     28 H           8.0622    1.7250    0.0000 H       1  UNL1        0.0625
     29 H           5.7932    2.6550    0.0000 H       1  UNL1        0.0625
     30 H           6.0010   -0.4650    0.0000 H       1  UNL1        0.0656
     31 H           6.8671    1.0350    0.0000 H       1  UNL1        0.0656
     32 H           8.0622    4.9650    0.0000 H       1  UNL1        0.0654
     33 H           9.4651    2.5350    0.0000 H       1  UNL1        0.0654
     34 H           5.1350   -4.9650    0.0000 H       1  UNL1        0.2923
     35 H           2.3100   -2.6181    0.0000 H       1  UNL1        0.0660
     36 H           1.4631   -2.8450    0.0000 H       1  UNL1        0.0660
     37 H           1.6900   -3.6919    0.0000 H       1  UNL1        0.0660
     38 H           9.7942    4.9650    0.0000 H       1  UNL1        0.2921
@<TRIPOS>BOND
     1     1     7    1
     2     1    22    1
     3     2     9    1
     4     2    34    1
     5     3    21    1
     6     3    38    1
     7     4    18    2
     8     5     6   ar
     9     5     8   ar
    10     5    11    1
    11     6     7   ar
    12     6    23    1
    13     7     9   ar
    14     8    10   ar
    15     8    24    1
    16     9    10   ar
    17    10    25    1
    18    11    16    2
    19    11    26    1
    20    12    13    1
    21    12    14   ar
    22    12    15   ar
    23    13    17    2
    24    13    29    1
    25    14    19   ar
    26    14    27    1
    27    15    20   ar
    28    15    28    1
    29    16    18    1
    30    16    30    1
    31    17    18    1
    32    17    31    1
    33    19    21   ar
    34    19    32    1
    35    20    21   ar
    36    20    33    1
    37    22    35    1
    38    22    36    1
    39    22    37    1
