@<TRIPOS>MOLECULE
IMPHY005800
 86 90 0 0 0
SMALL
GASTEIGER

@<TRIPOS>ATOM
      1 O          10.5929   -0.1675    0.0000 O.3     1  UNL1       -0.3915
      2 O           6.1847   -2.7126    0.0000 O.3     1  UNL1       -0.3915
      3 O           2.5357   -1.6957    0.0000 O.3     1  UNL1       -0.3912
      4 O          12.4513    1.6809    0.0000 O.3     1  UNL1       -0.3888
      5 C           7.9288    0.3567    0.0000 C.3     1  UNL1       -0.0207
      6 C           7.0628   -0.1433    0.0000 C.3     1  UNL1       -0.0207
      7 C           7.9288    1.3567    0.0000 C.3     1  UNL1       -0.0293
      8 C           6.1968    0.3567    0.0000 C.3     1  UNL1       -0.0293
      9 C           8.8228    1.8913    0.0000 C.3     1  UNL1       -0.0232
     10 C           5.2868   -0.1502    0.0000 C.3     1  UNL1       -0.0229
     11 C           9.7288    1.3775    0.0000 C.3     1  UNL1       -0.0039
     12 C           5.2787   -1.1918    0.0000 C.3     1  UNL1       -0.0018
     13 C           8.8228   -0.1780    0.0000 C.3     1  UNL1       -0.0204
     14 C           7.0628    1.8567    0.0000 C.3     1  UNL1       -0.0489
     15 C           7.0789   -1.1848    0.0000 C.3     1  UNL1       -0.0204
     16 C           6.1968    1.3567    0.0000 C.3     1  UNL1       -0.0489
     17 C           9.7288    0.3358    0.0000 C.3     1  UNL1        0.0594
     18 C           6.1808   -1.7126    0.0000 C.3     1  UNL1        0.0597
     19 C          10.4911    2.0782    0.0000 C.3     1  UNL1       -0.0070
     20 C           9.0329    2.9052    0.0000 C.3     1  UNL1       -0.0467
     21 C           4.3433   -1.7415    0.0000 C.3     1  UNL1       -0.0033
     22 C           8.2709   -0.5830    0.0000 C.3     1  UNL1       -0.0587
     23 C           4.3599    0.4139    0.0000 C.3     1  UNL1       -0.0446
     24 C           7.7056   -0.9094    0.0000 C.3     1  UNL1       -0.0587
     25 C          10.0619    3.0205    0.0000 C.3     1  UNL1       -0.0468
     26 C           7.9529    2.3846    0.0000 C.3     1  UNL1       -0.0589
     27 C           5.2945    0.8498    0.0000 C.3     1  UNL1       -0.0589
     28 C           3.4037   -1.1990    0.0000 C.3     1  UNL1        0.0607
     29 C           3.4120   -0.1141    0.0000 C.3     1  UNL1       -0.0258
     30 C          11.4712    1.8796    0.0000 C.3     1  UNL1        0.0637
     31 C           3.8467   -2.6095    0.0000 C.3     1  UNL1       -0.0571
     32 C           4.8466   -2.6056    0.0000 C.3     1  UNL1       -0.0571
     33 C          11.6699    2.8596    0.0000 C.3     1  UNL1       -0.0361
     34 C          11.2725    0.8995    0.0000 C.3     1  UNL1       -0.0361
     35 H           8.6682    0.9373    0.0000 H       1  UNL1        0.0312
     36 H           6.9329    0.7817    0.0000 H       1  UNL1        0.0312
     37 H          10.5071    1.0358    0.0000 H       1  UNL1        0.0335
     38 H           5.2820   -2.0418    0.0000 H       1  UNL1        0.0337
     39 H           8.4182   -0.6478    0.0000 H       1  UNL1        0.0296
     40 H           9.2164   -0.6570    0.0000 H       1  UNL1        0.0296
     41 H           7.4613    2.3316    0.0000 H       1  UNL1        0.0268
     42 H           6.6643    2.3316    0.0000 H       1  UNL1        0.0268
     43 H           7.2969   -1.7652    0.0000 H       1  UNL1        0.0296
     44 H           7.6880   -1.0694    0.0000 H       1  UNL1        0.0296
     45 H           5.9847    1.9393    0.0000 H       1  UNL1        0.0268
     46 H           5.5862    1.2490    0.0000 H       1  UNL1        0.0268
     47 H          10.2664    0.6448    0.0000 H       1  UNL1        0.0596
     48 H           6.7195   -2.0195    0.0000 H       1  UNL1        0.0596
     49 H          11.0201    2.7436    0.0000 H       1  UNL1        0.0332
     50 H           9.0290    3.5252    0.0000 H       1  UNL1        0.0271
     51 H           8.4159    2.9665    0.0000 H       1  UNL1        0.0271
     52 H           7.6884   -0.7951    0.0000 H       1  UNL1        0.0235
     53 H           8.4830   -1.1656    0.0000 H       1  UNL1        0.0235
     54 H           8.8535   -0.3709    0.0000 H       1  UNL1        0.0235
     55 H           4.7681    0.8805    0.0000 H       1  UNL1        0.0271
     56 H           3.9700    0.8959    0.0000 H       1  UNL1        0.0271
     57 H           7.2306   -1.3079    0.0000 H       1  UNL1        0.0235
     58 H           8.1041   -1.3843    0.0000 H       1  UNL1        0.0235
     59 H           8.1805   -0.5109    0.0000 H       1  UNL1        0.0235
     60 H          10.6500    3.2168    0.0000 H       1  UNL1        0.0269
     61 H           9.9285    3.6260    0.0000 H       1  UNL1        0.0269
     62 H           8.2588    2.9239    0.0000 H       1  UNL1        0.0235
     63 H           7.4136    2.6905    0.0000 H       1  UNL1        0.0235
     64 H           7.6471    1.8453    0.0000 H       1  UNL1        0.0235
     65 H           5.9145    0.8450    0.0000 H       1  UNL1        0.0235
     66 H           5.2993    1.4698    0.0000 H       1  UNL1        0.0235
     67 H           4.6745    0.8546    0.0000 H       1  UNL1        0.0235
     68 H           3.4025   -1.8190    0.0000 H       1  UNL1        0.0599
     69 H           3.2075    0.4712    0.0000 H       1  UNL1        0.0290
     70 H           2.8004   -0.2154    0.0000 H       1  UNL1        0.0290
     71 H           4.3109   -2.9177    0.0000 H       1  UNL1        0.0236
     72 H           5.1587   -3.1413    0.0000 H       1  UNL1        0.0236
     73 H           5.3824   -2.2935    0.0000 H       1  UNL1        0.0236
     74 H           3.3085   -2.3015    0.0000 H       1  UNL1        0.0236
     75 H           3.5387   -3.1476    0.0000 H       1  UNL1        0.0236
     76 H           4.3848   -2.9174    0.0000 H       1  UNL1        0.0236
     77 H          10.5905   -0.7875    0.0000 H       1  UNL1        0.2098
     78 H           6.7228   -3.0205    0.0000 H       1  UNL1        0.2098
     79 H          12.2775    2.7364    0.0000 H       1  UNL1        0.0257
     80 H          11.7931    3.4673    0.0000 H       1  UNL1        0.0257
     81 H          11.0622    2.9828    0.0000 H       1  UNL1        0.0257
     82 H          10.6649    1.0227    0.0000 H       1  UNL1        0.0257
     83 H          11.1494    0.2918    0.0000 H       1  UNL1        0.0257
     84 H          11.8802    0.7763    0.0000 H       1  UNL1        0.0257
     85 H           2.0000   -1.3836    0.0000 H       1  UNL1        0.2098
     86 H          12.8618    2.1455    0.0000 H       1  UNL1        0.2101
@<TRIPOS>BOND
     1    17     1    1
     2     1    77    1
     3    18     2    1
     4     2    78    1
     5    28     3    1
     6     3    85    1
     7     4    30    1
     8     4    86    1
     9     5     6    1
    10     5     7    1
    11     5    13    1
    12     5    22    1
    13     6     8    1
    14     6    15    1
    15     6    24    1
    16     7     9    1
    17     7    14    1
    18     7    35    1
    19     8    10    1
    20     8    16    1
    21     8    36    1
    22     9    11    1
    23     9    20    1
    24     9    26    1
    25    10    12    1
    26    10    23    1
    27    10    27    1
    28    11    17    1
    29    11    19    1
    30    11    37    1
    31    12    18    1
    32    12    21    1
    33    12    38    1
    34    13    17    1
    35    13    39    1
    36    13    40    1
    37    14    16    1
    38    14    41    1
    39    14    42    1
    40    15    18    1
    41    15    43    1
    42    15    44    1
    43    16    45    1
    44    16    46    1
    45    17    47    1
    46    18    48    1
    47    19    25    1
    48    19    30    1
    49    19    49    1
    50    20    25    1
    51    20    50    1
    52    20    51    1
    53    21    28    1
    54    21    31    1
    55    21    32    1
    56    22    52    1
    57    22    53    1
    58    22    54    1
    59    23    29    1
    60    23    55    1
    61    23    56    1
    62    24    57    1
    63    24    58    1
    64    24    59    1
    65    25    60    1
    66    25    61    1
    67    26    62    1
    68    26    63    1
    69    26    64    1
    70    27    65    1
    71    27    66    1
    72    27    67    1
    73    28    29    1
    74    28    68    1
    75    29    69    1
    76    29    70    1
    77    30    33    1
    78    30    34    1
    79    31    74    1
    80    31    75    1
    81    31    76    1
    82    32    71    1
    83    32    72    1
    84    32    73    1
    85    33    79    1
    86    33    80    1
    87    33    81    1
    88    34    82    1
    89    34    83    1
    90    34    84    1
