@<TRIPOS>MOLECULE
IMPHY010496
 55 59 0 0 0
SMALL
GASTEIGER

@<TRIPOS>ATOM
      1 O           8.1100   -1.6303    0.0000 O.3     1  UNL1       -0.4672
      2 O           6.3782   -0.9002    0.0000 O.2     1  UNL1       -0.2497
      3 O           2.5282   -1.4937    0.0000 O.3     1  UNL1       -0.4951
      4 N           7.1985    1.7815    0.0000 N.3     1  UNL1       -0.2971
      5 N           6.5625   -1.3938    0.0000 N.ar    1  UNL1       -0.3568
      6 C           7.8220    0.9997    0.0000 C.3     1  UNL1        0.0344
      7 C           7.5995    0.0248    0.0000 C.3     1  UNL1        0.1235
      8 C           9.3498   -0.3961    0.0000 C.3     1  UNL1       -0.0265
      9 C           8.8125    1.3220    0.0000 C.3     1  UNL1       -0.0240
     10 C           8.3521   -0.6954    0.0000 C.3     1  UNL1       -0.0262
     11 C           9.5815    0.6195    0.0000 C.3     1  UNL1       -0.0447
     12 C           8.9028    1.3137    0.0000 C.3     1  UNL1        0.0021
     13 C           6.6985   -0.4091    0.0000 C.ar    1  UNL1        0.0388
     14 C           6.1985    1.7815    0.0000 C.3     1  UNL1        0.0033
     15 C           9.0238    2.2995    0.0000 C.3     1  UNL1       -0.0516
     16 C           7.3770   -0.9502    0.0000 C.2     1  UNL1        0.3205
     17 C           5.7976    0.0248    0.0000 C.ar    1  UNL1       -0.0167
     18 C           5.5750    0.9997    0.0000 C.3     1  UNL1       -0.0126
     19 C           5.1125   -0.6955    0.0000 C.ar    1  UNL1        0.0066
     20 C           9.9759    2.6053    0.0000 C.3     1  UNL1       -0.0650
     21 C           5.5843   -1.5705    0.0000 C.ar    1  UNL1        0.0472
     22 C           4.0780   -0.6495    0.0000 C.ar    1  UNL1       -0.0105
     23 C           5.0544   -2.4601    0.0000 C.ar    1  UNL1       -0.0343
     24 C           7.8875   -2.6053    0.0000 C.3     1  UNL1        0.0817
     25 C           3.5277   -1.5266    0.0000 C.ar    1  UNL1        0.1208
     26 C           4.0192   -2.4380    0.0000 C.ar    1  UNL1       -0.0180
     27 C           2.0000   -2.3428    0.0000 C.3     1  UNL1        0.0788
     28 H           8.0112    1.8284    0.0000 H       1  UNL1        0.0480
     29 H           9.5647   -1.2184    0.0000 H       1  UNL1        0.0314
     30 H           9.4032    1.5105    0.0000 H       1  UNL1        0.0316
     31 H           7.8531   -1.0634    0.0000 H       1  UNL1        0.0283
     32 H           8.6292   -1.2500    0.0000 H       1  UNL1        0.0283
     33 H          10.1535    0.3801    0.0000 H       1  UNL1        0.0271
     34 H           9.9152    1.1420    0.0000 H       1  UNL1        0.0271
     35 H           9.5207    1.3640    0.0000 H       1  UNL1        0.0429
     36 H           8.9606    1.9310    0.0000 H       1  UNL1        0.0429
     37 H           6.3365    2.3860    0.0000 H       1  UNL1        0.0430
     38 H           5.6399    2.0505    0.0000 H       1  UNL1        0.0430
     39 H           8.9396    2.9137    0.0000 H       1  UNL1        0.0266
     40 H           8.4042    2.3232    0.0000 H       1  UNL1        0.0266
     41 H           5.1885    1.4844    0.0000 H       1  UNL1        0.0326
     42 H           5.0164    0.7307    0.0000 H       1  UNL1        0.0326
     43 H           7.0099   -1.8231    0.0000 H       1  UNL1        0.1656
     44 H          10.1654    2.0149    0.0000 H       1  UNL1        0.0230
     45 H          10.5662    2.7948    0.0000 H       1  UNL1        0.0230
     46 H           9.7863    3.1956    0.0000 H       1  UNL1        0.0230
     47 H           3.7901   -0.1004    0.0000 H       1  UNL1        0.0661
     48 H           5.3549   -3.0024    0.0000 H       1  UNL1        0.0639
     49 H           7.2831   -2.4673    0.0000 H       1  UNL1        0.0661
     50 H           7.7496   -3.2097    0.0000 H       1  UNL1        0.0661
     51 H           8.4920   -2.7432    0.0000 H       1  UNL1        0.0661
     52 H           3.6957   -2.9670    0.0000 H       1  UNL1        0.0655
     53 H           1.4736   -2.0153    0.0000 H       1  UNL1        0.0660
     54 H           1.6725   -2.8692    0.0000 H       1  UNL1        0.0660
     55 H           2.5264   -2.6703    0.0000 H       1  UNL1        0.0660
@<TRIPOS>BOND
     1     1    16    1
     2     1    24    1
     3     2    16    2
     4     3    25    1
     5     3    27    1
     6     4     6    1
     7     4    12    1
     8     4    14    1
     9     5    13   ar
    10     5    21   ar
    11     5    43    1
    12     6     7    1
    13     6     9    1
    14     6    28    1
    15     7    10    1
    16     7    13    1
    17     7    16    1
    18     8    10    1
    19     8    11    1
    20     8    12    1
    21     8    29    1
    22     9    11    1
    23     9    15    1
    24     9    30    1
    25    10    31    1
    26    10    32    1
    27    11    33    1
    28    11    34    1
    29    12    35    1
    30    12    36    1
    31    13    17   ar
    32    14    18    1
    33    14    37    1
    34    14    38    1
    35    15    20    1
    36    15    39    1
    37    15    40    1
    38    17    18    1
    39    17    19   ar
    40    18    41    1
    41    18    42    1
    42    19    21   ar
    43    19    22   ar
    44    20    44    1
    45    20    45    1
    46    20    46    1
    47    21    23   ar
    48    22    25   ar
    49    22    47    1
    50    23    26   ar
    51    23    48    1
    52    24    49    1
    53    24    50    1
    54    24    51    1
    55    25    26   ar
    56    26    52    1
    57    27    53    1
    58    27    54    1
    59    27    55    1
