@<TRIPOS>MOLECULE
IMPHY000200
 90 92 0 0 0
SMALL
GASTEIGER

@<TRIPOS>ATOM
      1 O           6.8533   -0.7207    0.0000 O.3     1  UNL1       -0.4566
      2 O           2.4079    1.4376    0.0000 O.3     1  UNL1       -0.3944
      3 O           5.5173   -3.1792    0.0000 O.2     1  UNL1       -0.3007
      4 O           7.1016    2.6353    0.0000 O.3     1  UNL1       -0.4773
      5 O           5.5411    3.3868    0.0000 O.2     1  UNL1       -0.2455
      6 O           7.9332    0.6335    0.0000 O.2     1  UNL1       -0.2508
      7 O          14.7840   -0.3991    0.0000 O.3     1  UNL1       -0.3892
      8 O          15.2678   -3.0002    0.0000 O.3     1  UNL1       -0.3892
      9 O          21.4858   -2.4205    0.0000 O.3     1  UNL1       -0.3950
     10 C           5.1705   -0.5311    0.0000 C.3     1  UNL1        0.0246
     11 C           4.2695   -0.0972    0.0000 C.3     1  UNL1       -0.0230
     12 C           4.0470    0.8778    0.0000 C.3     1  UNL1        0.0016
     13 C           4.6705    1.6596    0.0000 C.3     1  UNL1       -0.0009
     14 C           5.2774    0.6457    0.0000 C.3     1  UNL1       -0.0351
     15 C           5.0345   -1.5158    0.0000 C.3     1  UNL1        0.0241
     16 C           3.5844   -0.8175    0.0000 C.3     1  UNL1       -0.0483
     17 C           6.0715   -0.0972    0.0000 C.3     1  UNL1        0.1285
     18 C           4.0562   -1.6924    0.0000 C.3     1  UNL1       -0.0428
     19 C           5.6705    1.6596    0.0000 C.2     1  UNL1        0.0396
     20 C           3.3891    1.6308    0.0000 C.3     1  UNL1        0.0504
     21 C           3.1275    0.4847    0.0000 C.3     1  UNL1       -0.0566
     22 C           6.2940    0.8778    0.0000 C.2     1  UNL1       -0.0332
     23 C           5.7561   -2.2081    0.0000 C.2     1  UNL1        0.1240
     24 C           6.1044    2.5606    0.0000 C.2     1  UNL1        0.3329
     25 C           7.7842   -0.3553    0.0000 C.2     1  UNL1        0.3076
     26 C           8.5660   -0.9788    0.0000 C.3     1  UNL1        0.0450
     27 C           9.4969   -0.6135    0.0000 C.3     1  UNL1       -0.0430
     28 C          10.2787   -1.2370    0.0000 C.3     1  UNL1       -0.0526
     29 C          11.2096   -0.8716    0.0000 C.3     1  UNL1       -0.0530
     30 C          11.9914   -1.4951    0.0000 C.3     1  UNL1       -0.0530
     31 C          12.9223   -1.1298    0.0000 C.3     1  UNL1       -0.0506
     32 C          13.7041   -1.7532    0.0000 C.3     1  UNL1       -0.0244
     33 C          14.6350   -1.3879    0.0000 C.3     1  UNL1        0.0811
     34 C          15.4168   -2.0114    0.0000 C.3     1  UNL1        0.0811
     35 C          16.3477   -1.6461    0.0000 C.3     1  UNL1       -0.0244
     36 C          17.1295   -2.2696    0.0000 C.3     1  UNL1       -0.0506
     37 C          18.0604   -1.9042    0.0000 C.3     1  UNL1       -0.0529
     38 C          18.8422   -2.5277    0.0000 C.3     1  UNL1       -0.0510
     39 C          19.7731   -2.1624    0.0000 C.3     1  UNL1       -0.0297
     40 C          20.5549   -2.7858    0.0000 C.3     1  UNL1        0.0442
     41 H           3.5037    0.2716    0.0000 H       1  UNL1        0.0314
     42 H           4.4814    2.4883    0.0000 H       1  UNL1        0.0357
     43 H           5.8474    0.4019    0.0000 H       1  UNL1        0.0278
     44 H           5.6852    1.1127    0.0000 H       1  UNL1        0.0278
     45 H           5.6202   -1.3123    0.0000 H       1  UNL1        0.0381
     46 H           3.1826   -0.3453    0.0000 H       1  UNL1        0.0268
     47 H           3.0727   -1.1675    0.0000 H       1  UNL1        0.0268
     48 H           6.6567    0.1076    0.0000 H       1  UNL1        0.0785
     49 H           3.4826   -1.9277    0.0000 H       1  UNL1        0.0272
     50 H           4.2299   -2.2876    0.0000 H       1  UNL1        0.0272
     51 H           3.9197    1.9515    0.0000 H       1  UNL1        0.0563
     52 H           3.1654    2.2091    0.0000 H       1  UNL1        0.0563
     53 H           2.8838    1.0548    0.0000 H       1  UNL1        0.0236
     54 H           2.5574    0.2411    0.0000 H       1  UNL1        0.0236
     55 H           3.3712   -0.0854    0.0000 H       1  UNL1        0.0236
     56 H           6.8984    1.0157    0.0000 H       1  UNL1        0.0614
     57 H           6.3515   -2.0353    0.0000 H       1  UNL1        0.1029
     58 H           2.0000    1.9045    0.0000 H       1  UNL1        0.2094
     59 H           7.3706    3.1939    0.0000 H       1  UNL1        0.2954
     60 H           8.1011   -1.3890    0.0000 H       1  UNL1        0.0377
     61 H           8.8893   -1.5078    0.0000 H       1  UNL1        0.0377
     62 H           9.9617   -0.2032    0.0000 H       1  UNL1        0.0270
     63 H           9.1736   -0.0844    0.0000 H       1  UNL1        0.0270
     64 H           9.8138   -1.6472    0.0000 H       1  UNL1        0.0265
     65 H          10.6020   -1.7660    0.0000 H       1  UNL1        0.0265
     66 H          11.6744   -0.4614    0.0000 H       1  UNL1        0.0265
     67 H          10.8863   -0.3426    0.0000 H       1  UNL1        0.0265
     68 H          11.5266   -1.9054    0.0000 H       1  UNL1        0.0265
     69 H          12.3147   -2.0242    0.0000 H       1  UNL1        0.0265
     70 H          13.3872   -0.7195    0.0000 H       1  UNL1        0.0266
     71 H          12.5990   -0.6007    0.0000 H       1  UNL1        0.0266
     72 H          13.2393   -2.1635    0.0000 H       1  UNL1        0.0291
     73 H          14.0274   -2.2823    0.0000 H       1  UNL1        0.0291
     74 H          14.1503   -1.0014    0.0000 H       1  UNL1        0.0619
     75 H          14.8397   -2.2379    0.0000 H       1  UNL1        0.0619
     76 H          16.8126   -1.2358    0.0000 H       1  UNL1        0.0291
     77 H          16.0244   -1.1170    0.0000 H       1  UNL1        0.0291
     78 H          16.6647   -2.6798    0.0000 H       1  UNL1        0.0266
     79 H          17.4528   -2.7986    0.0000 H       1  UNL1        0.0266
     80 H          18.5253   -1.4940    0.0000 H       1  UNL1        0.0265
     81 H          17.7371   -1.3752    0.0000 H       1  UNL1        0.0265
     82 H          15.3612   -0.1726    0.0000 H       1  UNL1        0.2099
     83 H          15.7525   -3.3868    0.0000 H       1  UNL1        0.2099
     84 H          18.3774   -2.9380    0.0000 H       1  UNL1        0.0266
     85 H          19.1655   -3.0567    0.0000 H       1  UNL1        0.0266
     86 H          20.2380   -1.7521    0.0000 H       1  UNL1        0.0287
     87 H          19.4498   -1.6333    0.0000 H       1  UNL1        0.0287
     88 H          20.0901   -3.1961    0.0000 H       1  UNL1        0.0557
     89 H          20.8782   -3.3149    0.0000 H       1  UNL1        0.0557
     90 H          21.9706   -2.8071    0.0000 H       1  UNL1        0.2094
@<TRIPOS>BOND
     1    17     1    1
     2     1    25    1
     3     2    20    1
     4     2    58    1
     5     3    23    2
     6     4    24    1
     7     4    59    1
     8     5    24    2
     9     6    25    2
    10    33     7    1
    11     7    82    1
    12    34     8    1
    13     8    83    1
    14     9    40    1
    15     9    90    1
    16    10    11    1
    17    10    14    1
    18    10    15    1
    19    10    17    1
    20    11    12    1
    21    11    16    1
    22    11    41    1
    23    12    13    1
    24    12    20    1
    25    12    21    1
    26    13    14    1
    27    13    19    1
    28    13    42    1
    29    14    43    1
    30    14    44    1
    31    15    18    1
    32    15    23    1
    33    15    45    1
    34    16    18    1
    35    16    46    1
    36    16    47    1
    37    17    22    1
    38    17    48    1
    39    18    49    1
    40    18    50    1
    41    19    22    2
    42    19    24    1
    43    20    51    1
    44    20    52    1
    45    21    53    1
    46    21    54    1
    47    21    55    1
    48    22    56    1
    49    23    57    1
    50    25    26    1
    51    26    27    1
    52    26    60    1
    53    26    61    1
    54    27    28    1
    55    27    62    1
    56    27    63    1
    57    28    29    1
    58    28    64    1
    59    28    65    1
    60    29    30    1
    61    29    66    1
    62    29    67    1
    63    30    31    1
    64    30    68    1
    65    30    69    1
    66    31    32    1
    67    31    70    1
    68    31    71    1
    69    32    33    1
    70    32    72    1
    71    32    73    1
    72    33    34    1
    73    33    74    1
    74    34    35    1
    75    34    75    1
    76    35    36    1
    77    35    76    1
    78    35    77    1
    79    36    37    1
    80    36    78    1
    81    36    79    1
    82    37    38    1
    83    37    80    1
    84    37    81    1
    85    38    39    1
    86    38    84    1
    87    38    85    1
    88    39    40    1
    89    39    86    1
    90    39    87    1
    91    40    88    1
    92    40    89    1
