@<TRIPOS>MOLECULE
IMPHY001193
 111 113 0 0 0
SMALL
GASTEIGER

@<TRIPOS>ATOM
      1 O           5.2558    1.0815    0.0000 O.3     1  UNL1       -0.3655
      2 O           3.6377    3.2571    0.0000 O.3     1  UNL1       -0.3655
      3 O           2.6867    1.3905    0.0000 O.3     1  UNL1       -0.3891
      4 O           6.2068    2.9480    0.0000 O.3     1  UNL1       -0.3891
      5 O           6.5290   -0.5741    0.0000 O.3     1  UNL1       -0.3892
      6 O           2.3644    4.9126    0.0000 O.3     1  UNL1       -0.3892
      7 O           6.0449  -13.5367    0.0000 O.3     1  UNL1       -0.4542
      8 O           7.7086  -12.8981    0.0000 O.2     1  UNL1       -0.2453
      9 C           4.4467    1.6693    0.0000 C.3     1  UNL1        0.1135
     10 C           4.4467    2.6693    0.0000 C.3     1  UNL1        0.1135
     11 C           3.6377    1.0815    0.0000 C.3     1  UNL1        0.0863
     12 C           5.2558    3.2571    0.0000 C.3     1  UNL1        0.0863
     13 C           4.9467    0.1304    0.0000 C.3     1  UNL1        0.0875
     14 C           3.9467    4.2081    0.0000 C.3     1  UNL1        0.0875
     15 C           3.9467    0.1304    0.0000 C.3     1  UNL1        0.0045
     16 C           4.9467    4.2081    0.0000 C.3     1  UNL1        0.0045
     17 C           5.5345   -0.6786    0.0000 C.3     1  UNL1        0.0814
     18 C           3.3590    5.0171    0.0000 C.3     1  UNL1        0.0814
     19 C           5.1278   -1.5921    0.0000 C.3     1  UNL1       -0.0244
     20 C           3.7657    5.9307    0.0000 C.3     1  UNL1       -0.0244
     21 C           5.7156   -2.4012    0.0000 C.3     1  UNL1       -0.0506
     22 C           3.1779    6.7397    0.0000 C.3     1  UNL1       -0.0506
     23 C           5.3088   -3.3147    0.0000 C.3     1  UNL1       -0.0530
     24 C           3.5846    7.6532    0.0000 C.3     1  UNL1       -0.0530
     25 C           5.8966   -4.1237    0.0000 C.3     1  UNL1       -0.0531
     26 C           2.9968    8.4622    0.0000 C.3     1  UNL1       -0.0531
     27 C           5.4899   -5.0373    0.0000 C.3     1  UNL1       -0.0531
     28 C           3.4036    9.3758    0.0000 C.3     1  UNL1       -0.0531
     29 C           6.0777   -5.8463    0.0000 C.3     1  UNL1       -0.0531
     30 C           2.8158   10.1848    0.0000 C.3     1  UNL1       -0.0531
     31 C           5.6709   -6.7598    0.0000 C.3     1  UNL1       -0.0531
     32 C           3.2225   11.0984    0.0000 C.3     1  UNL1       -0.0531
     33 C           6.2587   -7.5688    0.0000 C.3     1  UNL1       -0.0531
     34 C           5.8520   -8.4824    0.0000 C.3     1  UNL1       -0.0530
     35 C           2.6348   11.9074    0.0000 C.3     1  UNL1       -0.0533
     36 C           6.4398   -9.2914    0.0000 C.3     1  UNL1       -0.0528
     37 C           3.0415   12.8209    0.0000 C.3     1  UNL1       -0.0559
     38 C           6.0330  -10.2049    0.0000 C.3     1  UNL1       -0.0488
     39 C           6.6208  -11.0140    0.0000 C.3     1  UNL1       -0.0211
     40 C           2.4537   13.6299    0.0000 C.3     1  UNL1       -0.0653
     41 C           6.2141  -11.9275    0.0000 C.2     1  UNL1        0.0361
     42 C           5.2359  -12.1354    0.0000 C.2     1  UNL1       -0.0343
     43 C           5.1314  -13.1299    0.0000 C.3     1  UNL1        0.1195
     44 C           6.7141  -12.7935    0.0000 C.2     1  UNL1        0.3355
     45 C           4.2654  -13.6299    0.0000 C.3     1  UNL1       -0.0240
     46 H           3.6894    2.0552    0.0000 H       1  UNL1        0.0649
     47 H           3.6894    2.2834    0.0000 H       1  UNL1        0.0649
     48 H           3.5407    1.6938    0.0000 H       1  UNL1        0.0621
     49 H           5.3527    2.6447    0.0000 H       1  UNL1        0.0621
     50 H           5.7863    0.2634    0.0000 H       1  UNL1        0.0623
     51 H           3.1072    4.0751    0.0000 H       1  UNL1        0.0623
     52 H           3.3403    0.0015    0.0000 H       1  UNL1        0.0317
     53 H           4.0115   -0.4862    0.0000 H       1  UNL1        0.0317
     54 H           5.5532    4.3370    0.0000 H       1  UNL1        0.0317
     55 H           4.8819    4.8247    0.0000 H       1  UNL1        0.0317
     56 H           5.8990   -1.1802    0.0000 H       1  UNL1        0.0619
     57 H           2.9945    5.5187    0.0000 H       1  UNL1        0.0619
     58 H           4.6138   -1.2454    0.0000 H       1  UNL1        0.0291
     59 H           4.6971   -2.0381    0.0000 H       1  UNL1        0.0291
     60 H           4.2797    5.5840    0.0000 H       1  UNL1        0.0291
     61 H           4.1964    6.3767    0.0000 H       1  UNL1        0.0291
     62 H           2.2259    0.9756    0.0000 H       1  UNL1        0.2099
     63 H           6.6676    3.3629    0.0000 H       1  UNL1        0.2099
     64 H           6.2296   -2.7478    0.0000 H       1  UNL1        0.0266
     65 H           6.1463   -1.9552    0.0000 H       1  UNL1        0.0266
     66 H           2.6639    7.0864    0.0000 H       1  UNL1        0.0266
     67 H           2.7472    6.2937    0.0000 H       1  UNL1        0.0266
     68 H           6.8935   -1.0756    0.0000 H       1  UNL1        0.2099
     69 H           2.0000    5.4142    0.0000 H       1  UNL1        0.2099
     70 H           4.7948   -2.9680    0.0000 H       1  UNL1        0.0265
     71 H           4.8781   -3.7607    0.0000 H       1  UNL1        0.0265
     72 H           4.0986    7.3065    0.0000 H       1  UNL1        0.0265
     73 H           4.0153    8.0992    0.0000 H       1  UNL1        0.0265
     74 H           6.4106   -4.4704    0.0000 H       1  UNL1        0.0265
     75 H           6.3273   -3.6777    0.0000 H       1  UNL1        0.0265
     76 H           2.4828    8.8090    0.0000 H       1  UNL1        0.0265
     77 H           2.5662    8.0163    0.0000 H       1  UNL1        0.0265
     78 H           4.9759   -4.6906    0.0000 H       1  UNL1        0.0265
     79 H           5.0592   -5.4832    0.0000 H       1  UNL1        0.0265
     80 H           3.9176    9.0291    0.0000 H       1  UNL1        0.0265
     81 H           3.8343    9.8218    0.0000 H       1  UNL1        0.0265
     82 H           6.5917   -6.1930    0.0000 H       1  UNL1        0.0265
     83 H           6.5084   -5.4003    0.0000 H       1  UNL1        0.0265
     84 H           2.3018   10.5315    0.0000 H       1  UNL1        0.0265
     85 H           2.3851    9.7388    0.0000 H       1  UNL1        0.0265
     86 H           5.1569   -6.4131    0.0000 H       1  UNL1        0.0265
     87 H           5.2402   -7.2058    0.0000 H       1  UNL1        0.0265
     88 H           3.7365   10.7517    0.0000 H       1  UNL1        0.0265
     89 H           3.6532   11.5444    0.0000 H       1  UNL1        0.0265
     90 H           6.7727   -7.9155    0.0000 H       1  UNL1        0.0265
     91 H           6.6894   -7.1228    0.0000 H       1  UNL1        0.0265
     92 H           5.3380   -8.1357    0.0000 H       1  UNL1        0.0265
     93 H           5.4213   -8.9284    0.0000 H       1  UNL1        0.0265
     94 H           2.1208   12.2541    0.0000 H       1  UNL1        0.0265
     95 H           2.2041   11.4614    0.0000 H       1  UNL1        0.0265
     96 H           6.9538   -9.6381    0.0000 H       1  UNL1        0.0265
     97 H           6.8704   -8.8454    0.0000 H       1  UNL1        0.0265
     98 H           3.5555   12.4742    0.0000 H       1  UNL1        0.0263
     99 H           3.4722   13.2669    0.0000 H       1  UNL1        0.0263
    100 H           5.5190   -9.8582    0.0000 H       1  UNL1        0.0268
    101 H           5.6023  -10.6509    0.0000 H       1  UNL1        0.0268
    102 H           7.1348  -11.3607    0.0000 H       1  UNL1        0.0315
    103 H           7.0515  -10.5680    0.0000 H       1  UNL1        0.0315
    104 H           2.9553   13.9944    0.0000 H       1  UNL1        0.0230
    105 H           2.0893   14.1315    0.0000 H       1  UNL1        0.0230
    106 H           1.9521   13.2655    0.0000 H       1  UNL1        0.0230
    107 H           4.7752  -11.7206    0.0000 H       1  UNL1        0.0613
    108 H           5.1638  -13.7491    0.0000 H       1  UNL1        0.0777
    109 H           3.9554  -13.0930    0.0000 H       1  UNL1        0.0268
    110 H           3.7284  -13.9399    0.0000 H       1  UNL1        0.0268
    111 H           4.5754  -14.1669    0.0000 H       1  UNL1        0.0268
@<TRIPOS>BOND
     1     1     9    1
     2     1    13    1
     3     2    10    1
     4     2    14    1
     5     3    11    1
     6     3    62    1
     7     4    12    1
     8     4    63    1
     9    17     5    1
    10     5    68    1
    11    18     6    1
    12     6    69    1
    13     7    43    1
    14     7    44    1
    15     8    44    2
    16     9    10    1
    17     9    11    1
    18     9    46    1
    19    10    12    1
    20    10    47    1
    21    11    15    1
    22    11    48    1
    23    12    16    1
    24    12    49    1
    25    13    15    1
    26    13    17    1
    27    13    50    1
    28    14    16    1
    29    14    18    1
    30    14    51    1
    31    15    52    1
    32    15    53    1
    33    16    54    1
    34    16    55    1
    35    17    19    1
    36    17    56    1
    37    18    20    1
    38    18    57    1
    39    19    21    1
    40    19    58    1
    41    19    59    1
    42    20    22    1
    43    20    60    1
    44    20    61    1
    45    21    23    1
    46    21    64    1
    47    21    65    1
    48    22    24    1
    49    22    66    1
    50    22    67    1
    51    23    25    1
    52    23    70    1
    53    23    71    1
    54    24    26    1
    55    24    72    1
    56    24    73    1
    57    25    27    1
    58    25    74    1
    59    25    75    1
    60    26    28    1
    61    26    76    1
    62    26    77    1
    63    27    29    1
    64    27    78    1
    65    27    79    1
    66    28    30    1
    67    28    80    1
    68    28    81    1
    69    29    31    1
    70    29    82    1
    71    29    83    1
    72    30    32    1
    73    30    84    1
    74    30    85    1
    75    31    33    1
    76    31    86    1
    77    31    87    1
    78    32    35    1
    79    32    88    1
    80    32    89    1
    81    33    34    1
    82    33    90    1
    83    33    91    1
    84    34    36    1
    85    34    92    1
    86    34    93    1
    87    35    37    1
    88    35    94    1
    89    35    95    1
    90    36    38    1
    91    36    96    1
    92    36    97    1
    93    37    40    1
    94    37    98    1
    95    37    99    1
    96    38    39    1
    97    38   100    1
    98    38   101    1
    99    39    41    1
   100    39   102    1
   101    39   103    1
   102    40   104    1
   103    40   105    1
   104    40   106    1
   105    41    42    2
   106    41    44    1
   107    42    43    1
   108    42   107    1
   109    43    45    1
   110    43   108    1
   111    45   109    1
   112    45   110    1
   113    45   111    1
