@<TRIPOS>MOLECULE
IMPHY009189
 46 50 0 0 0
SMALL
GASTEIGER

@<TRIPOS>ATOM
      1 O           3.9061   -1.6040    0.0000 O.3     1  UNL1       -0.4814
      2 O           7.4260   -1.6040    0.0000 O.2     1  UNL1       -0.4618
      3 O           5.6660    1.4306    0.0000 O.3     1  UNL1       -0.4936
      4 O          11.8756    0.1604    0.0000 O.3     1  UNL1       -0.4526
      5 O           7.4144    1.4652    0.0000 O.2     1  UNL1       -0.2863
      6 O          11.8694    1.7698    0.0000 O.3     1  UNL1       -0.4526
      7 C           3.0000   -1.0902    0.0000 C.3     1  UNL1        0.1235
      8 C           4.8000   -0.0694    0.0000 C.ar    1  UNL1        0.0591
      9 C           4.8000   -1.0694    0.0000 C.ar    1  UNL1        0.1359
     10 C           3.0000   -0.0485    0.0000 C.2     1  UNL1       -0.0408
     11 C           6.5320   -0.0694    0.0000 C.ar    1  UNL1        0.1068
     12 C           5.6660    0.4306    0.0000 C.ar    1  UNL1        0.1450
     13 C           3.9061    0.4653    0.0000 C.2     1  UNL1       -0.0478
     14 C           2.0000   -1.0940    0.0000 C.3     1  UNL1       -0.0215
     15 C           2.5033   -1.9581    0.0000 C.3     1  UNL1       -0.0215
     16 C           6.5320   -1.0694    0.0000 C.ar    1  UNL1        0.1455
     17 C           5.6660   -1.5694    0.0000 C.ar    1  UNL1        0.0239
     18 C           7.4260    0.4653    0.0000 C.ar    1  UNL1        0.2037
     19 C           8.3321   -0.0485    0.0000 C.ar    1  UNL1        0.0645
     20 C           9.1962    0.4548    0.0000 C.ar    1  UNL1       -0.0076
     21 C           8.3321   -1.0902    0.0000 C.ar    1  UNL1        0.1038
     22 C          10.0641   -0.0419    0.0000 C.ar    1  UNL1       -0.0082
     23 C          10.9282    0.4615    0.0000 C.ar    1  UNL1        0.1668
     24 C           9.1923    1.4548    0.0000 C.ar    1  UNL1       -0.0501
     25 C          10.9243    1.4615    0.0000 C.ar    1  UNL1        0.1663
     26 C          10.0564    1.9581    0.0000 C.ar    1  UNL1       -0.0156
     27 C           4.8000    1.9306    0.0000 C.3     1  UNL1        0.0788
     28 C          12.4561    0.9674    0.0000 C.3     1  UNL1        0.2332
     29 H           2.4643    0.2635    0.0000 H       1  UNL1        0.0611
     30 H           3.9132    1.0853    0.0000 H       1  UNL1        0.0624
     31 H           1.9976   -0.4740    0.0000 H       1  UNL1        0.0271
     32 H           1.3800   -1.0964    0.0000 H       1  UNL1        0.0271
     33 H           2.0024   -1.7140    0.0000 H       1  UNL1        0.0271
     34 H           1.9652   -1.6502    0.0000 H       1  UNL1        0.0271
     35 H           2.1954   -2.4962    0.0000 H       1  UNL1        0.0271
     36 H           3.0415   -2.2660    0.0000 H       1  UNL1        0.0271
     37 H           5.6660   -2.1894    0.0000 H       1  UNL1        0.0691
     38 H           8.8678   -1.4022    0.0000 H       1  UNL1        0.1037
     39 H          10.0665   -0.6619    0.0000 H       1  UNL1        0.0661
     40 H           8.6542    1.7627    0.0000 H       1  UNL1        0.0625
     41 H          10.0540    2.5781    0.0000 H       1  UNL1        0.0655
     42 H          12.9185    0.5544    0.0000 H       1  UNL1        0.1166
     43 H          12.9153    1.3839    0.0000 H       1  UNL1        0.1166
     44 H           5.1100    2.4676    0.0000 H       1  UNL1        0.0660
     45 H           4.2631    2.2406    0.0000 H       1  UNL1        0.0660
     46 H           4.4900    1.3937    0.0000 H       1  UNL1        0.0660
@<TRIPOS>BOND
     1     1     7    1
     2     1     9    1
     3     2    16   ar
     4     2    21   ar
     5     3    12    1
     6     3    27    1
     7     4    23    1
     8     4    28    1
     9     5    18    2
    10     6    25    1
    11     6    28    1
    12     7    10    1
    13     7    14    1
    14     7    15    1
    15     8     9   ar
    16     8    12   ar
    17     8    13    1
    18     9    17   ar
    19    10    13    2
    20    10    29    1
    21    11    12   ar
    22    11    16   ar
    23    11    18   ar
    24    13    30    1
    25    14    31    1
    26    14    32    1
    27    14    33    1
    28    15    34    1
    29    15    35    1
    30    15    36    1
    31    16    17   ar
    32    17    37    1
    33    18    19   ar
    34    19    20    1
    35    19    21   ar
    36    20    22   ar
    37    20    24   ar
    38    21    38    1
    39    22    23   ar
    40    22    39    1
    41    23    25   ar
    42    24    26   ar
    43    24    40    1
    44    25    26   ar
    45    26    41    1
    46    27    44    1
    47    27    45    1
    48    27    46    1
    49    28    42    1
    50    28    43    1
