@<TRIPOS>MOLECULE
IMPHY005986
 22 23 0 0 0
SMALL
GASTEIGER

@<TRIPOS>ATOM
      1 O           5.4920   -1.3797    0.0000 O.2     1  UNL1       -0.4595
      2 O           3.7320    1.6550    0.0000 O.3     1  UNL1       -0.5058
      3 O           2.0000   -1.3450    0.0000 O.3     1  UNL1       -0.5065
      4 O           5.4804    1.6896    0.0000 O.2     1  UNL1       -0.2869
      5 C           4.5981    0.1550    0.0000 C.ar    1  UNL1        0.1054
      6 C           4.5981   -0.8450    0.0000 C.ar    1  UNL1        0.1457
      7 C           3.7320    0.6550    0.0000 C.ar    1  UNL1        0.1347
      8 C           5.4920    0.6897    0.0000 C.ar    1  UNL1        0.1963
      9 C           6.3981   -0.8658    0.0000 C.ar    1  UNL1        0.1062
     10 C           3.7320   -1.3450    0.0000 C.ar    1  UNL1        0.0231
     11 C           6.3981    0.1758    0.0000 C.ar    1  UNL1        0.0237
     12 C           2.8660   -0.8450    0.0000 C.ar    1  UNL1        0.1239
     13 C           2.8660    0.1550    0.0000 C.ar    1  UNL1        0.0223
     14 C           7.2622   -1.3692    0.0000 C.3     1  UNL1       -0.0062
     15 H           3.7320   -1.9650    0.0000 H       1  UNL1        0.0691
     16 H           6.9338    0.4879    0.0000 H       1  UNL1        0.0689
     17 H           2.3291    0.4650    0.0000 H       1  UNL1        0.0691
     18 H           6.9501   -1.9049    0.0000 H       1  UNL1        0.0308
     19 H           7.7979   -1.6812    0.0000 H       1  UNL1        0.0308
     20 H           7.5742   -0.8334    0.0000 H       1  UNL1        0.0308
     21 H           3.1951    1.9650    0.0000 H       1  UNL1        0.2922
     22 H           2.0000   -1.9650    0.0000 H       1  UNL1        0.2921
@<TRIPOS>BOND
     1     1     6   ar
     2     1     9   ar
     3     2     7    1
     4     2    21    1
     5     3    12    1
     6     3    22    1
     7     4     8    2
     8     5     6   ar
     9     5     7   ar
    10     5     8   ar
    11     6    10   ar
    12     7    13   ar
    13     8    11   ar
    14     9    11   ar
    15     9    14    1
    16    10    12   ar
    17    10    15    1
    18    11    16    1
    19    12    13   ar
    20    13    17    1
    21    14    18    1
    22    14    19    1
    23    14    20    1
