@<TRIPOS>MOLECULE
IMPHY010672
 62 66 0 0 0
SMALL
GASTEIGER

@<TRIPOS>ATOM
      1 O           7.9288   -2.0254    0.0000 O.3     1  UNL1       -0.3877
      2 O           4.4323   -0.0256    0.0000 O.3     1  UNL1       -0.3944
      3 O           2.5357   -3.0778    0.0000 O.3     1  UNL1       -0.3918
      4 O           9.1885    2.8479    0.0000 O.3     1  UNL1       -0.4571
      5 O          10.9491    3.1236    0.0000 O.2     1  UNL1       -0.2456
      6 C           7.9288   -1.0254    0.0000 C.3     1  UNL1        0.0751
      7 C           7.0628   -1.5254    0.0000 C.3     1  UNL1       -0.0082
      8 C           6.1968   -1.0254    0.0000 C.3     1  UNL1       -0.0276
      9 C           7.9288   -0.0254    0.0000 C.3     1  UNL1        0.0036
     10 C           5.2868   -1.5323    0.0000 C.3     1  UNL1        0.0000
     11 C           5.2787   -2.5739    0.0000 C.3     1  UNL1       -0.0307
     12 C           6.1968   -0.0254    0.0000 C.3     1  UNL1       -0.0487
     13 C           7.0628    0.4746    0.0000 C.3     1  UNL1       -0.0442
     14 C           8.8750    0.2793    0.0000 C.3     1  UNL1       -0.0081
     15 C           7.0789   -2.5669    0.0000 C.3     1  UNL1       -0.0470
     16 C           8.8750   -1.3302    0.0000 C.3     1  UNL1       -0.0226
     17 C           6.1808   -3.0947    0.0000 C.3     1  UNL1       -0.0492
     18 C           9.4586   -0.5254    0.0000 C.3     1  UNL1       -0.0432
     19 C           4.3599   -0.9682    0.0000 C.3     1  UNL1       -0.0424
     20 C           4.3433   -3.1236    0.0000 C.3     1  UNL1       -0.0234
     21 C           7.9288    0.9746    0.0000 C.3     1  UNL1       -0.0564
     22 C           5.2945   -0.5323    0.0000 C.3     1  UNL1        0.0503
     23 C           3.4120   -1.4961    0.0000 C.3     1  UNL1       -0.0263
     24 C           3.4037   -2.5811    0.0000 C.3     1  UNL1        0.0555
     25 C           9.1857    1.2298    0.0000 C.2     1  UNL1       -0.0222
     26 C           8.5993    2.0399    0.0000 C.3     1  UNL1        0.1147
     27 C          10.1373    1.5372    0.0000 C.2     1  UNL1        0.0252
     28 C          10.1390    2.5372    0.0000 C.2     1  UNL1        0.3323
     29 H           7.8022   -1.9447    0.0000 H       1  UNL1        0.0331
     30 H           6.9329   -0.6004    0.0000 H       1  UNL1        0.0310
     31 H           5.2820   -3.4239    0.0000 H       1  UNL1        0.0308
     32 H           5.9847    0.5572    0.0000 H       1  UNL1        0.0268
     33 H           5.5862   -0.1331    0.0000 H       1  UNL1        0.0268
     34 H           7.4613    0.9495    0.0000 H       1  UNL1        0.0272
     35 H           6.6643    0.9495    0.0000 H       1  UNL1        0.0272
     36 H           9.4875    0.3755    0.0000 H       1  UNL1        0.0353
     37 H           7.2969   -3.1473    0.0000 H       1  UNL1        0.0269
     38 H           7.6880   -2.4514    0.0000 H       1  UNL1        0.0269
     39 H           8.6240   -1.8971    0.0000 H       1  UNL1        0.0293
     40 H           9.4124   -1.6394    0.0000 H       1  UNL1        0.0293
     41 H           5.7835   -3.5706    0.0000 H       1  UNL1        0.0268
     42 H           6.5818   -3.5676    0.0000 H       1  UNL1        0.0268
     43 H           9.9195   -0.9401    0.0000 H       1  UNL1        0.0272
     44 H           9.9195   -0.1107    0.0000 H       1  UNL1        0.0272
     45 H           4.7681   -0.5015    0.0000 H       1  UNL1        0.0272
     46 H           3.9700   -0.4861    0.0000 H       1  UNL1        0.0272
     47 H           3.9460   -3.5996    0.0000 H       1  UNL1        0.0293
     48 H           4.7443   -3.5965    0.0000 H       1  UNL1        0.0293
     49 H           8.5488    0.9746    0.0000 H       1  UNL1        0.0236
     50 H           7.9288    1.5946    0.0000 H       1  UNL1        0.0236
     51 H           7.3088    0.9746    0.0000 H       1  UNL1        0.0236
     52 H           5.9042   -0.6447    0.0000 H       1  UNL1        0.0563
     53 H           5.5110    0.0487    0.0000 H       1  UNL1        0.0563
     54 H           3.2075   -0.9108    0.0000 H       1  UNL1        0.0290
     55 H           2.8004   -1.5975    0.0000 H       1  UNL1        0.0290
     56 H           2.8686   -2.2680    0.0000 H       1  UNL1        0.0593
     57 H           8.4658   -2.3354    0.0000 H       1  UNL1        0.2102
     58 H           8.1393    2.4555    0.0000 H       1  UNL1        0.0746
     59 H           8.1378    1.6258    0.0000 H       1  UNL1        0.0746
     60 H           4.4371    0.5944    0.0000 H       1  UNL1        0.2094
     61 H          10.6383    1.1719    0.0000 H       1  UNL1        0.0689
     62 H           2.0000   -2.7657    0.0000 H       1  UNL1        0.2098
@<TRIPOS>BOND
     1     6     1    1
     2     1    57    1
     3     2    22    1
     4     2    60    1
     5    24     3    1
     6     3    62    1
     7     4    26    1
     8     4    28    1
     9     5    28    2
    10     6     7    1
    11     6     9    1
    12     6    16    1
    13     7     8    1
    14     7    15    1
    15     7    29    1
    16     8    10    1
    17     8    12    1
    18     8    30    1
    19     9    13    1
    20     9    14    1
    21     9    21    1
    22    10    11    1
    23    10    19    1
    24    10    22    1
    25    11    17    1
    26    11    20    1
    27    11    31    1
    28    12    13    1
    29    12    32    1
    30    12    33    1
    31    13    34    1
    32    13    35    1
    33    14    18    1
    34    14    25    1
    35    14    36    1
    36    15    17    1
    37    15    37    1
    38    15    38    1
    39    16    18    1
    40    16    39    1
    41    16    40    1
    42    17    41    1
    43    17    42    1
    44    18    43    1
    45    18    44    1
    46    19    23    1
    47    19    45    1
    48    19    46    1
    49    20    24    1
    50    20    47    1
    51    20    48    1
    52    21    49    1
    53    21    50    1
    54    21    51    1
    55    22    52    1
    56    22    53    1
    57    23    24    1
    58    23    54    1
    59    23    55    1
    60    24    56    1
    61    25    26    1
    62    25    27    2
    63    26    58    1
    64    26    59    1
    65    27    28    1
    66    27    61    1
