@<TRIPOS>MOLECULE
IMPHY000938
 143 149 0 0 0
SMALL
GASTEIGER

@<TRIPOS>ATOM
      1 O           9.7107    2.7517    0.0000 O.3     1  UNL1       -0.3449
      2 O           7.3671   -5.5096    0.0000 O.3     1  UNL1       -0.3860
      3 O           7.3945    0.7993    0.0000 O.2     1  UNL1       -0.3004
      4 O           6.0010   -6.1436    0.0000 O.3     1  UNL1       -0.3459
      5 O           8.0623    3.2835    0.0000 O.3     1  UNL1       -0.3461
      6 O          10.3247    4.6552    0.0000 O.3     1  UNL1       -0.3378
      7 O           4.2690   -6.1436    0.0000 O.3     1  UNL1       -0.3405
      8 O           8.9833    6.1386    0.0000 O.3     1  UNL1       -0.3864
      9 O           6.0010   -8.1436    0.0000 O.3     1  UNL1       -0.3841
     10 O           7.0279    5.7186    0.0000 O.3     1  UNL1       -0.3869
     11 O           4.2690   -9.1436    0.0000 O.3     1  UNL1       -0.3864
     12 O           9.9610    6.3486    0.0000 O.3     1  UNL1       -0.3405
     13 O           2.5369   -8.1436    0.0000 O.3     1  UNL1       -0.3865
     14 O          12.2801    5.0751    0.0000 O.3     1  UNL1       -0.3841
     15 O           2.5369   -5.1436    0.0000 O.3     1  UNL1       -0.3924
     16 O          12.8941    6.9786    0.0000 O.3     1  UNL1       -0.3864
     17 O          11.5527    8.4620    0.0000 O.3     1  UNL1       -0.3865
     18 O           9.9043    8.9937    0.0000 O.3     1  UNL1       -0.3924
     19 C           9.1253   -1.9981    0.0000 C.3     1  UNL1       -0.0227
     20 C           8.8146   -2.9487    0.0000 C.3     1  UNL1       -0.0232
     21 C           8.4575   -1.2538    0.0000 C.3     1  UNL1       -0.0228
     22 C           7.8361   -3.1549    0.0000 C.3     1  UNL1       -0.0296
     23 C           8.7658   -0.2589    0.0000 C.3     1  UNL1        0.0327
     24 C           9.7833   -0.0362    0.0000 C.3     1  UNL1       -0.0212
     25 C          10.1477   -1.7991    0.0000 C.3     1  UNL1       -0.0465
     26 C           7.7331   -4.1436    0.0000 C.3     1  UNL1       -0.0066
     27 C           7.4790   -1.4601    0.0000 C.3     1  UNL1       -0.0485
     28 C           9.3080   -3.8117    0.0000 C.3     1  UNL1       -0.0465
     29 C           7.1683   -2.4106    0.0000 C.3     1  UNL1       -0.0491
     30 C          10.4790   -0.8115    0.0000 C.3     1  UNL1       -0.0482
     31 C           8.6409   -4.5487    0.0000 C.3     1  UNL1       -0.0467
     32 C          10.1283    0.9925    0.0000 C.3     1  UNL1       -0.0048
     33 C           8.0227    0.5317    0.0000 C.3     1  UNL1       -0.0380
     34 C          10.0074   -2.4691    0.0000 C.3     1  UNL1       -0.0588
     35 C           9.8047   -3.0896    0.0000 C.3     1  UNL1       -0.0588
     36 C           6.8671   -4.6436    0.0000 C.3     1  UNL1        0.0927
     37 C           9.4037    1.8000    0.0000 C.3     1  UNL1        0.0672
     38 C           8.3438    1.5681    0.0000 C.3     1  UNL1       -0.0251
     39 C           7.7747   -0.1255    0.0000 C.2     1  UNL1        0.1270
     40 C          10.8752    1.6574    0.0000 C.3     1  UNL1       -0.0572
     41 C          11.0776    0.6781    0.0000 C.3     1  UNL1       -0.0572
     42 C           6.3671   -3.7776    0.0000 C.3     1  UNL1       -0.0181
     43 C           6.0010   -5.1436    0.0000 C.3     1  UNL1        0.0798
     44 C           5.3671   -3.7776    0.0000 C.3     1  UNL1       -0.0318
     45 C           9.0400    3.4935    0.0000 C.3     1  UNL1        0.1882
     46 C           9.3470    4.4452    0.0000 C.3     1  UNL1        0.1406
     47 C           4.8671   -2.9116    0.0000 C.2     1  UNL1       -0.0852
     48 C           5.1350   -6.6436    0.0000 C.3     1  UNL1        0.1880
     49 C           8.6763    5.1869    0.0000 C.3     1  UNL1        0.1141
     50 C           5.1350   -7.6436    0.0000 C.3     1  UNL1        0.1341
     51 C           7.3916    4.0252    0.0000 C.3     1  UNL1        0.0792
     52 C           7.6986    4.9769    0.0000 C.3     1  UNL1        0.1069
     53 C           3.8671   -2.9116    0.0000 C.2     1  UNL1       -0.0796
     54 C           4.2690   -8.1436    0.0000 C.3     1  UNL1        0.1141
     55 C           3.4030   -6.6436    0.0000 C.3     1  UNL1        0.1130
     56 C           3.4030   -7.6436    0.0000 C.3     1  UNL1        0.1119
     57 C          10.6317    5.6069    0.0000 C.3     1  UNL1        0.1885
     58 C           3.3671   -2.0455    0.0000 C.3     1  UNL1       -0.0440
     59 C           3.3671   -3.7776    0.0000 C.3     1  UNL1       -0.0440
     60 C          11.6094    5.8169    0.0000 C.3     1  UNL1        0.1341
     61 C           2.5369   -6.1436    0.0000 C.3     1  UNL1        0.0730
     62 C          11.9164    6.7686    0.0000 C.3     1  UNL1        0.1141
     63 C          10.2680    7.3003    0.0000 C.3     1  UNL1        0.1130
     64 C          11.2457    7.5103    0.0000 C.3     1  UNL1        0.1119
     65 C           9.5973    8.0420    0.0000 C.3     1  UNL1        0.0730
     66 H           7.8849   -0.6256    0.0000 H       1  UNL1        0.0316
     67 H           7.0276   -3.4172    0.0000 H       1  UNL1        0.0310
     68 H          10.6157    0.1359    0.0000 H       1  UNL1        0.0316
     69 H          10.1603   -2.4190    0.0000 H       1  UNL1        0.0271
     70 H          10.7606   -1.8927    0.0000 H       1  UNL1        0.0271
     71 H           7.7772   -4.9925    0.0000 H       1  UNL1        0.0332
     72 H           7.4584   -0.8404    0.0000 H       1  UNL1        0.0268
     73 H           6.8652   -1.3727    0.0000 H       1  UNL1        0.0268
     74 H           9.7214   -4.2738    0.0000 H       1  UNL1        0.0271
     75 H           9.8109   -3.4492    0.0000 H       1  UNL1        0.0271
     76 H           6.6214   -2.1186    0.0000 H       1  UNL1        0.0268
     77 H           6.7857   -2.8985    0.0000 H       1  UNL1        0.0268
     78 H          11.0244   -1.1063    0.0000 H       1  UNL1        0.0269
     79 H          10.8628   -0.3246    0.0000 H       1  UNL1        0.0269
     80 H           8.3301   -5.0852    0.0000 H       1  UNL1        0.0269
     81 H           9.1417   -4.9142    0.0000 H       1  UNL1        0.0269
     82 H           7.4706    0.8139    0.0000 H       1  UNL1        0.0276
     83 H           7.6502    0.0361    0.0000 H       1  UNL1        0.0276
     84 H           9.7154   -3.0161    0.0000 H       1  UNL1        0.0235
     85 H          10.5544   -2.7612    0.0000 H       1  UNL1        0.0235
     86 H          10.2995   -1.9222    0.0000 H       1  UNL1        0.0235
     87 H           9.7173   -3.7034    0.0000 H       1  UNL1        0.0235
     88 H          10.4185   -3.1769    0.0000 H       1  UNL1        0.0235
     89 H           9.8920   -2.4757    0.0000 H       1  UNL1        0.0235
     90 H           8.9870    2.2591    0.0000 H       1  UNL1        0.0602
     91 H           8.3169    2.1875    0.0000 H       1  UNL1        0.0291
     92 H           7.7289    1.6476    0.0000 H       1  UNL1        0.0291
     93 H           7.3959   -0.6164    0.0000 H       1  UNL1        0.1032
     94 H          11.2875    1.1944    0.0000 H       1  UNL1        0.0236
     95 H          11.3383    2.0697    0.0000 H       1  UNL1        0.0236
     96 H          10.4629    2.1205    0.0000 H       1  UNL1        0.0236
     97 H          10.8828    0.0896    0.0000 H       1  UNL1        0.0236
     98 H          11.6662    0.4833    0.0000 H       1  UNL1        0.0236
     99 H          11.2725    1.2667    0.0000 H       1  UNL1        0.0236
    100 H           6.9497   -3.5655    0.0000 H       1  UNL1        0.0297
    101 H           6.2594   -3.1670    0.0000 H       1  UNL1        0.0297
    102 H           5.7890   -4.5610    0.0000 H       1  UNL1        0.0589
    103 H           5.3905   -5.2513    0.0000 H       1  UNL1        0.0589
    104 H           7.9871   -5.5096    0.0000 H       1  UNL1        0.2103
    105 H           4.7844   -3.9896    0.0000 H       1  UNL1        0.0308
    106 H           5.4747   -4.3882    0.0000 H       1  UNL1        0.0308
    107 H           8.8497    2.9034    0.0000 H       1  UNL1        0.0937
    108 H           9.7628    3.9853    0.0000 H       1  UNL1        0.0675
    109 H           5.1771   -2.3746    0.0000 H       1  UNL1        0.0571
    110 H           5.1350   -6.0236    0.0000 H       1  UNL1        0.0937
    111 H           8.2604    5.6468    0.0000 H       1  UNL1        0.0648
    112 H           5.1350   -8.2636    0.0000 H       1  UNL1        0.0671
    113 H           6.8436    4.3151    0.0000 H       1  UNL1        0.0587
    114 H           7.0109    3.5358    0.0000 H       1  UNL1        0.0587
    115 H           7.0924    4.8467    0.0000 H       1  UNL1        0.0643
    116 H           3.7320   -8.4536    0.0000 H       1  UNL1        0.0648
    117 H           3.4030   -6.0236    0.0000 H       1  UNL1        0.0647
    118 H           2.8660   -7.3336    0.0000 H       1  UNL1        0.0647
    119 H          11.0475    5.1470    0.0000 H       1  UNL1        0.0938
    120 H           8.5674    6.5985    0.0000 H       1  UNL1        0.2100
    121 H           3.9040   -1.7355    0.0000 H       1  UNL1        0.0274
    122 H           3.0571   -1.5086    0.0000 H       1  UNL1        0.0274
    123 H           2.8301   -2.3555    0.0000 H       1  UNL1        0.0274
    124 H           2.8301   -3.4676    0.0000 H       1  UNL1        0.0274
    125 H           3.0571   -4.3145    0.0000 H       1  UNL1        0.0274
    126 H           3.9040   -4.0876    0.0000 H       1  UNL1        0.0274
    127 H           6.5380   -7.8336    0.0000 H       1  UNL1        0.2101
    128 H           6.4217    5.5884    0.0000 H       1  UNL1        0.2100
    129 H          12.2156    5.9470    0.0000 H       1  UNL1        0.0671
    130 H           1.9264   -6.0359    0.0000 H       1  UNL1        0.0584
    131 H           2.3249   -6.7262    0.0000 H       1  UNL1        0.0584
    132 H           3.7320   -9.4536    0.0000 H       1  UNL1        0.2100
    133 H           2.0000   -7.8336    0.0000 H       1  UNL1        0.2100
    134 H          12.1067    7.3586    0.0000 H       1  UNL1        0.0648
    135 H           9.6618    7.1701    0.0000 H       1  UNL1        0.0647
    136 H          10.8299    7.9702    0.0000 H       1  UNL1        0.0647
    137 H          12.8863    5.2053    0.0000 H       1  UNL1        0.2101
    138 H           2.0000   -4.8336    0.0000 H       1  UNL1        0.2095
    139 H           9.0492    8.3319    0.0000 H       1  UNL1        0.0584
    140 H           9.2166    7.5526    0.0000 H       1  UNL1        0.0584
    141 H          13.0844    7.5686    0.0000 H       1  UNL1        0.2100
    142 H          12.1589    8.5922    0.0000 H       1  UNL1        0.2100
    143 H           9.4884    9.4536    0.0000 H       1  UNL1        0.2095
@<TRIPOS>BOND
     1    37     1    1
     2    45     1    1
     3    36     2    1
     4     2   104    1
     5     3    39    2
     6     4    43    1
     7    48     4    1
     8     5    45    1
     9     5    51    1
    10    46     6    1
    11    57     6    1
    12     7    48    1
    13     7    55    1
    14    49     8    1
    15     8   120    1
    16    50     9    1
    17     9   127    1
    18    52    10    1
    19    10   128    1
    20    54    11    1
    21    11   132    1
    22    12    57    1
    23    12    63    1
    24    56    13    1
    25    13   133    1
    26    60    14    1
    27    14   137    1
    28    15    61    1
    29    15   138    1
    30    62    16    1
    31    16   141    1
    32    64    17    1
    33    17   142    1
    34    18    65    1
    35    18   143    1
    36    19    20    1
    37    19    21    1
    38    19    25    1
    39    19    34    1
    40    20    22    1
    41    20    28    1
    42    20    35    1
    43    21    23    1
    44    21    27    1
    45    21    66    1
    46    22    26    1
    47    22    29    1
    48    22    67    1
    49    23    24    1
    50    23    33    1
    51    23    39    1
    52    24    30    1
    53    24    32    1
    54    24    68    1
    55    25    30    1
    56    25    69    1
    57    25    70    1
    58    26    31    1
    59    26    36    1
    60    26    71    1
    61    27    29    1
    62    27    72    1
    63    27    73    1
    64    28    31    1
    65    28    74    1
    66    28    75    1
    67    29    76    1
    68    29    77    1
    69    30    78    1
    70    30    79    1
    71    31    80    1
    72    31    81    1
    73    32    37    1
    74    32    40    1
    75    32    41    1
    76    33    38    1
    77    33    82    1
    78    33    83    1
    79    34    84    1
    80    34    85    1
    81    34    86    1
    82    35    87    1
    83    35    88    1
    84    35    89    1
    85    36    42    1
    86    36    43    1
    87    37    38    1
    88    37    90    1
    89    38    91    1
    90    38    92    1
    91    39    93    1
    92    40    94    1
    93    40    95    1
    94    40    96    1
    95    41    97    1
    96    41    98    1
    97    41    99    1
    98    42    44    1
    99    42   100    1
   100    42   101    1
   101    43   102    1
   102    43   103    1
   103    44    47    1
   104    44   105    1
   105    44   106    1
   106    45    46    1
   107    45   107    1
   108    46    49    1
   109    46   108    1
   110    47    53    2
   111    47   109    1
   112    48    50    1
   113    48   110    1
   114    49    52    1
   115    49   111    1
   116    50    54    1
   117    50   112    1
   118    51    52    1
   119    51   113    1
   120    51   114    1
   121    52   115    1
   122    53    58    1
   123    53    59    1
   124    54    56    1
   125    54   116    1
   126    55    56    1
   127    55    61    1
   128    55   117    1
   129    56   118    1
   130    57    60    1
   131    57   119    1
   132    58   121    1
   133    58   122    1
   134    58   123    1
   135    59   124    1
   136    59   125    1
   137    59   126    1
   138    60    62    1
   139    60   129    1
   140    61   130    1
   141    61   131    1
   142    62    64    1
   143    62   134    1
   144    63    64    1
   145    63    65    1
   146    63   135    1
   147    64   136    1
   148    65   139    1
   149    65   140    1
