@<TRIPOS>MOLECULE
IMPHY014115
 25 24 0 0 0
SMALL
GASTEIGER

@<TRIPOS>ATOM
      1 C           6.3301    0.2500    0.0000 C.3     1  UNL1       -0.0255
      2 C           5.4641   -0.2500    0.0000 C.2     1  UNL1       -0.0703
      3 C           4.5981    0.2500    0.0000 C.3     1  UNL1       -0.0135
      4 C           7.1962   -0.2500    0.0000 C.3     1  UNL1       -0.0590
      5 C           6.3301    1.2500    0.0000 C.3     1  UNL1       -0.0590
      6 C           3.7320   -0.2500    0.0000 C.2     1  UNL1       -0.0842
      7 C           5.4641   -1.2500    0.0000 C.2     1  UNL1       -0.0989
      8 C           2.8660    0.2500    0.0000 C.2     1  UNL1       -0.0907
      9 C           2.0000   -0.2500    0.0000 C.3     1  UNL1       -0.0468
     10 H           6.8671    0.5600    0.0000 H       1  UNL1        0.0340
     11 H           4.9966    0.7249    0.0000 H       1  UNL1        0.0352
     12 H           4.1996    0.7249    0.0000 H       1  UNL1        0.0352
     13 H           6.8862   -0.7869    0.0000 H       1  UNL1        0.0235
     14 H           7.7331   -0.5600    0.0000 H       1  UNL1        0.0235
     15 H           7.5062    0.2869    0.0000 H       1  UNL1        0.0235
     16 H           6.9501    1.2500    0.0000 H       1  UNL1        0.0235
     17 H           6.3301    1.8700    0.0000 H       1  UNL1        0.0235
     18 H           5.7101    1.2500    0.0000 H       1  UNL1        0.0235
     19 H           3.7320   -0.8700    0.0000 H       1  UNL1        0.0572
     20 H           4.9272   -1.5600    0.0000 H       1  UNL1        0.0535
     21 H           6.0010   -1.5600    0.0000 H       1  UNL1        0.0535
     22 H           2.8660    0.8700    0.0000 H       1  UNL1        0.0566
     23 H           1.6900    0.2869    0.0000 H       1  UNL1        0.0272
     24 H           1.4631   -0.5600    0.0000 H       1  UNL1        0.0272
     25 H           2.3100   -0.7869    0.0000 H       1  UNL1        0.0272
@<TRIPOS>BOND
     1     1     2    1
     2     1     4    1
     3     1     5    1
     4     1    10    1
     5     2     3    1
     6     2     7    2
     7     3     6    1
     8     3    11    1
     9     3    12    1
    10     4    13    1
    11     4    14    1
    12     4    15    1
    13     5    16    1
    14     5    17    1
    15     5    18    1
    16     6     8    2
    17     6    19    1
    18     7    20    1
    19     7    21    1
    20     8     9    1
    21     8    22    1
    22     9    23    1
    23     9    24    1
    24     9    25    1
