@<TRIPOS>MOLECULE
IMPHY002122
 34 37 0 0 0
SMALL
GASTEIGER

@<TRIPOS>ATOM
      1 O           4.3798    0.5069    0.0000 O.2     1  UNL1       -0.4539
      2 O           2.5836   -2.3394    0.0000 O.2     1  UNL1       -0.4591
      3 O           4.3958   -3.5346    0.0000 O.3     1  UNL1       -0.4914
      4 O           7.0321   -1.0378    0.0000 O.2     1  UNL1       -0.2870
      5 C           4.3958   -0.5346    0.0000 C.ar    1  UNL1        0.1502
      6 C           3.5298   -1.0346    0.0000 C.ar    1  UNL1        0.0667
      7 C           5.2619   -1.0346    0.0000 C.ar    1  UNL1        0.0683
      8 C           3.5298   -2.0346    0.0000 C.ar    1  UNL1        0.1797
      9 C           4.3958   -2.5346    0.0000 C.ar    1  UNL1        0.1636
     10 C           5.2619   -2.0346    0.0000 C.ar    1  UNL1       -0.0019
     11 C           5.2778    1.0346    0.0000 C.ar    1  UNL1        0.1392
     12 C           6.1719   -0.5278    0.0000 C.ar    1  UNL1        0.1932
     13 C           2.5836   -0.7299    0.0000 C.ar    1  UNL1       -0.0124
     14 C           6.1799    0.5138    0.0000 C.ar    1  UNL1        0.0287
     15 C           5.2740    2.0346    0.0000 C.ar    1  UNL1        0.0174
     16 C           2.0000   -1.5346    0.0000 C.ar    1  UNL1        0.0934
     17 C           6.1381    2.5380    0.0000 C.ar    1  UNL1       -0.0511
     18 C           4.4060    2.5313    0.0000 C.ar    1  UNL1       -0.0511
     19 C           6.1342    3.5380    0.0000 C.ar    1  UNL1       -0.0611
     20 C           4.4022    3.5313    0.0000 C.ar    1  UNL1       -0.0611
     21 C           5.2663    4.0346    0.0000 C.ar    1  UNL1       -0.0617
     22 C           5.2619   -4.0346    0.0000 C.3     1  UNL1        0.0790
     23 H           5.7988   -2.3446    0.0000 H       1  UNL1        0.0663
     24 H           2.3910   -0.1406    0.0000 H       1  UNL1        0.0656
     25 H           6.7180    0.8218    0.0000 H       1  UNL1        0.0693
     26 H           1.3800   -1.5346    0.0000 H       1  UNL1        0.1030
     27 H           6.6762    2.2300    0.0000 H       1  UNL1        0.0625
     28 H           3.8703    2.2192    0.0000 H       1  UNL1        0.0625
     29 H           6.6700    3.8500    0.0000 H       1  UNL1        0.0618
     30 H           3.8640    3.8392    0.0000 H       1  UNL1        0.0618
     31 H           5.2639    4.6546    0.0000 H       1  UNL1        0.0618
     32 H           4.9519   -4.5716    0.0000 H       1  UNL1        0.0660
     33 H           5.7988   -4.3446    0.0000 H       1  UNL1        0.0660
     34 H           5.5719   -3.4977    0.0000 H       1  UNL1        0.0660
@<TRIPOS>BOND
     1     1     5   ar
     2     1    11   ar
     3     2     8   ar
     4     2    16   ar
     5     3     9    1
     6     3    22    1
     7     4    12    2
     8     5     6   ar
     9     5     7   ar
    10     6     8   ar
    11     6    13   ar
    12     7    10   ar
    13     7    12   ar
    14     8     9   ar
    15     9    10   ar
    16    10    23    1
    17    11    14   ar
    18    11    15    1
    19    12    14   ar
    20    13    16   ar
    21    13    24    1
    22    14    25    1
    23    15    17   ar
    24    15    18   ar
    25    16    26    1
    26    17    19   ar
    27    17    27    1
    28    18    20   ar
    29    18    28    1
    30    19    21   ar
    31    19    29    1
    32    20    21   ar
    33    20    30    1
    34    21    31    1
    35    22    32    1
    36    22    33    1
    37    22    34    1
