@<TRIPOS>MOLECULE
IMPHY006379
 18 17 0 0 0
SMALL
GASTEIGER

@<TRIPOS>ATOM
      1 O           5.1350   -0.7500    0.0000 O.2     1  UNL1       -0.2964
      2 O           6.8671   -0.7500    0.0000 O.2     1  UNL1       -0.2973
      3 O           2.5369    0.7500    0.0000 O.3     1  UNL1       -0.4803
      4 O           3.4030   -0.7500    0.0000 O.2     1  UNL1       -0.2505
      5 C           6.0010    0.7500    0.0000 C.3     1  UNL1        0.0646
      6 C           5.1350    0.2500    0.0000 C.2     1  UNL1        0.1510
      7 C           4.2690    0.7500    0.0000 C.3     1  UNL1        0.1035
      8 C           6.8671    0.2500    0.0000 C.2     1  UNL1        0.1374
      9 C           7.7331    0.7500    0.0000 C.3     1  UNL1       -0.0056
     10 C           3.4030    0.2500    0.0000 C.2     1  UNL1        0.3119
     11 H           6.3996    1.2250    0.0000 H       1  UNL1        0.0419
     12 H           5.6025    1.2250    0.0000 H       1  UNL1        0.0419
     13 H           4.6675    1.2250    0.0000 H       1  UNL1        0.0456
     14 H           3.8705    1.2250    0.0000 H       1  UNL1        0.0456
     15 H           8.0431    0.2131    0.0000 H       1  UNL1        0.0306
     16 H           8.2700    1.0600    0.0000 H       1  UNL1        0.0306
     17 H           7.4231    1.2869    0.0000 H       1  UNL1        0.0306
     18 H           2.0000    0.4400    0.0000 H       1  UNL1        0.2951
@<TRIPOS>BOND
     1     1     6    2
     2     2     8    2
     3     3    10    1
     4     3    18    1
     5     4    10    2
     6     5     6    1
     7     5     8    1
     8     5    11    1
     9     5    12    1
    10     6     7    1
    11     7    10    1
    12     7    13    1
    13     7    14    1
    14     8     9    1
    15     9    15    1
    16     9    16    1
    17     9    17    1
