@<TRIPOS>MOLECULE
IMPHY011119
 37 40 0 0 0
SMALL
GASTEIGER

@<TRIPOS>ATOM
      1 O           4.2974   -2.4065    0.0000 O.3     1  UNL1       -0.4779
      2 O           4.3217    1.7477    0.0000 O.2     1  UNL1       -0.4543
      3 O           2.5357   -1.2974    0.0000 O.3     1  UNL1       -0.5032
      4 O           6.9198    0.2477    0.0000 O.2     1  UNL1       -0.2863
      5 O           7.8240    1.7446    0.0000 O.3     1  UNL1       -0.5059
      6 C           5.2370   -2.9490    0.0000 C.3     1  UNL1        0.1237
      7 C           5.2038   -0.7938    0.0000 C.ar    1  UNL1        0.0345
      8 C           4.3058   -1.3216    0.0000 C.ar    1  UNL1        0.1709
      9 C           5.1877    0.2477    0.0000 C.ar    1  UNL1        0.0755
     10 C           6.1725   -2.3993    0.0000 C.2     1  UNL1       -0.0409
     11 C           6.1557   -1.3144    0.0000 C.2     1  UNL1       -0.0504
     12 C           4.3217    0.7477    0.0000 C.ar    1  UNL1        0.1435
     13 C           5.7404   -3.8131    0.0000 C.3     1  UNL1       -0.0215
     14 C           4.7404   -3.8170    0.0000 C.3     1  UNL1       -0.0215
     15 C           3.4037   -0.8007    0.0000 C.ar    1  UNL1        0.1627
     16 C           6.0538    0.7477    0.0000 C.ar    1  UNL1        0.2044
     17 C           3.4117    0.2409    0.0000 C.ar    1  UNL1        0.0266
     18 C           6.0538    1.7477    0.0000 C.ar    1  UNL1        0.1058
     19 C           5.1877    2.2477    0.0000 C.ar    1  UNL1        0.1428
     20 C           6.9638    2.2546    0.0000 C.ar    1  UNL1        0.1312
     21 C           5.1717    3.2892    0.0000 C.ar    1  UNL1       -0.0184
     22 C           6.9718    3.2962    0.0000 C.ar    1  UNL1       -0.0192
     23 C           6.0697    3.8170    0.0000 C.ar    1  UNL1       -0.0548
     24 H           6.7129   -2.7031    0.0000 H       1  UNL1        0.0611
     25 H           6.6866   -0.9941    0.0000 H       1  UNL1        0.0623
     26 H           5.2046   -4.1252    0.0000 H       1  UNL1        0.0271
     27 H           6.0524   -4.3488    0.0000 H       1  UNL1        0.0271
     28 H           4.2022   -3.5090    0.0000 H       1  UNL1        0.0271
     29 H           4.4324   -4.3551    0.0000 H       1  UNL1        0.0271
     30 H           5.2785   -4.1249    0.0000 H       1  UNL1        0.0271
     31 H           6.2761   -3.5010    0.0000 H       1  UNL1        0.0271
     32 H           2.8784    0.5570    0.0000 H       1  UNL1        0.0692
     33 H           4.6312    3.5930    0.0000 H       1  UNL1        0.0654
     34 H           7.5099    3.6041    0.0000 H       1  UNL1        0.0654
     35 H           6.0673    4.4370    0.0000 H       1  UNL1        0.0620
     36 H           2.0000   -0.9853    0.0000 H       1  UNL1        0.2923
     37 H           8.3644    2.0483    0.0000 H       1  UNL1        0.2922
@<TRIPOS>BOND
     1     1     6    1
     2     1     8    1
     3     2    12   ar
     4     2    19   ar
     5     3    15    1
     6     3    36    1
     7     4    16    2
     8     5    20    1
     9     5    37    1
    10     6    10    1
    11     6    13    1
    12     6    14    1
    13     7     8   ar
    14     7     9   ar
    15     7    11    1
    16     8    15   ar
    17     9    12   ar
    18     9    16   ar
    19    10    11    2
    20    10    24    1
    21    11    25    1
    22    12    17   ar
    23    13    26    1
    24    13    27    1
    25    13    31    1
    26    14    28    1
    27    14    29    1
    28    14    30    1
    29    15    17   ar
    30    16    18   ar
    31    17    32    1
    32    18    19   ar
    33    18    20   ar
    34    19    21   ar
    35    20    22   ar
    36    21    23   ar
    37    21    33    1
    38    22    23   ar
    39    22    34    1
    40    23    35    1
