@<TRIPOS>MOLECULE
IMPHY000263
 165 173 0 0 0
SMALL
GASTEIGER

@<TRIPOS>ATOM
      1 O          10.8498   -4.9485    0.0000 O.3     1  UNL1       -0.3448
      2 O          13.2939   -4.2568    0.0000 O.3     1  UNL1       -0.3944
      3 O           9.8574    5.6234    0.0000 O.3     1  UNL1       -0.4318
      4 O           9.1177   -4.9485    0.0000 O.3     1  UNL1       -0.3315
      5 O           8.3709    4.7343    0.0000 O.2     1  UNL1       -0.2502
      6 O          10.8498   -6.9485    0.0000 O.3     1  UNL1       -0.3378
      7 O           9.1177   -7.9485    0.0000 O.3     1  UNL1       -0.3864
      8 O           8.3442    6.4662    0.0000 O.3     1  UNL1       -0.3312
      9 O           7.3857   -6.9485    0.0000 O.3     1  UNL1       -0.3860
     10 O           9.9837   -8.4485    0.0000 O.3     1  UNL1       -0.3405
     11 O          10.8306    7.3706    0.0000 O.3     1  UNL1       -0.3829
     12 O           6.5196   -5.4485    0.0000 O.3     1  UNL1       -0.4788
     13 O           7.3857   -3.9485    0.0000 O.2     1  UNL1       -0.2480
     14 O           9.8040    9.0871    0.0000 O.3     1  UNL1       -0.3864
     15 O           7.8042    9.0562    0.0000 O.3     1  UNL1       -0.3865
     16 O          12.5818   -7.9485    0.0000 O.3     1  UNL1       -0.3841
     17 O          12.5818   -9.9485    0.0000 O.3     1  UNL1       -0.3864
     18 O           6.3178    8.1672    0.0000 O.3     1  UNL1       -0.3460
     19 O          10.8498  -10.9485    0.0000 O.3     1  UNL1       -0.3865
     20 O           9.1177  -10.9485    0.0000 O.3     1  UNL1       -0.3924
     21 O           4.8046    9.0100    0.0000 O.3     1  UNL1       -0.3405
     22 O           5.3446    6.4199    0.0000 O.3     1  UNL1       -0.3841
     23 O           3.3448    6.3891    0.0000 O.3     1  UNL1       -0.3864
     24 O           2.3182    8.1055    0.0000 O.3     1  UNL1       -0.3865
     25 O           3.7780   10.7264    0.0000 O.3     1  UNL1       -0.3924
     26 C          11.7508   -0.2483    0.0000 C.3     1  UNL1       -0.0194
     27 C          10.8867   -0.7516    0.0000 C.3     1  UNL1       -0.0257
     28 C          10.8747   -1.7932    0.0000 C.3     1  UNL1       -0.0249
     29 C          11.7470    0.7517    0.0000 C.3     1  UNL1       -0.0051
     30 C          11.7747   -2.3175    0.0000 C.3     1  UNL1       -0.0255
     31 C          12.6628   -0.7516    0.0000 C.3     1  UNL1       -0.0463
     32 C          11.7873   -3.4024    0.0000 C.3     1  UNL1        0.0206
     33 C          12.6748   -1.7932    0.0000 C.3     1  UNL1       -0.0485
     34 C          10.8790    1.2484    0.0000 C.2     1  UNL1       -0.0634
     35 C          10.8589    2.2898    0.0000 C.3     1  UNL1       -0.0130
     36 C          10.0188   -0.2550    0.0000 C.3     1  UNL1       -0.0306
     37 C           9.9248   -2.3175    0.0000 C.3     1  UNL1       -0.0447
     38 C          11.7549    2.8210    0.0000 C.3     1  UNL1       -0.0255
     39 C          12.6550    1.2620    0.0000 C.3     1  UNL1       -0.0429
     40 C          12.6590    2.3037    0.0000 C.3     1  UNL1       -0.0463
     41 C          12.7350   -0.0708    0.0000 C.3     1  UNL1       -0.0585
     42 C          10.8498   -3.9485    0.0000 C.3     1  UNL1        0.0695
     43 C          10.0106   -1.2898    0.0000 C.3     1  UNL1       -0.0590
     44 C          10.0149    0.7450    0.0000 C.2     1  UNL1       -0.0836
     45 C           9.9122   -3.4024    0.0000 C.3     1  UNL1       -0.0254
     46 C          12.7324    0.5819    0.0000 C.3     1  UNL1       -0.0553
     47 C           9.9050    2.8068    0.0000 C.3     1  UNL1       -0.0304
     48 C          11.7591    3.9060    0.0000 C.3     1  UNL1       -0.0461
     49 C           9.8841    3.8915    0.0000 C.3     1  UNL1        0.0656
     50 C          12.7873   -3.3947    0.0000 C.3     1  UNL1        0.0522
     51 C          12.2940   -4.2645    0.0000 C.3     1  UNL1       -0.0548
     52 C          10.8174    4.4449    0.0000 C.3     1  UNL1       -0.0370
     53 C          12.6151    3.3310    0.0000 C.3     1  UNL1       -0.0590
     54 C           8.8842    3.8761    0.0000 C.3     1  UNL1       -0.0494
     55 C           9.3708    4.7498    0.0000 C.2     1  UNL1        0.3153
     56 C           9.9837   -5.4485    0.0000 C.3     1  UNL1        0.1892
     57 C           9.9837   -6.4485    0.0000 C.3     1  UNL1        0.1407
     58 C           9.1177   -6.9485    0.0000 C.3     1  UNL1        0.1149
     59 C           8.2517   -5.4485    0.0000 C.3     1  UNL1        0.1859
     60 C           8.2517   -6.4485    0.0000 C.3     1  UNL1        0.1202
     61 C           9.3441    6.4816    0.0000 C.3     1  UNL1        0.2337
     62 C           9.8307    7.3552    0.0000 C.3     1  UNL1        0.1455
     63 C          10.8498   -7.9485    0.0000 C.3     1  UNL1        0.1885
     64 C           7.3857   -4.9485    0.0000 C.2     1  UNL1        0.3367
     65 C           9.3174    8.2134    0.0000 C.3     1  UNL1        0.1152
     66 C           7.8309    7.3244    0.0000 C.3     1  UNL1        0.1144
     67 C           8.3175    8.1980    0.0000 C.3     1  UNL1        0.1120
     68 C          11.7158   -8.4485    0.0000 C.3     1  UNL1        0.1341
     69 C          11.7158   -9.4485    0.0000 C.3     1  UNL1        0.1141
     70 C           6.8311    7.3090    0.0000 C.3     1  UNL1        0.0796
     71 C           9.9837   -9.4485    0.0000 C.3     1  UNL1        0.1130
     72 C          10.8498   -9.9485    0.0000 C.3     1  UNL1        0.1119
     73 C           9.1177   -9.9485    0.0000 C.3     1  UNL1        0.0730
     74 C           5.3179    8.1518    0.0000 C.3     1  UNL1        0.1880
     75 C           4.8313    7.2782    0.0000 C.3     1  UNL1        0.1341
     76 C           3.8314    7.2627    0.0000 C.3     1  UNL1        0.1141
     77 C           3.8047    8.9946    0.0000 C.3     1  UNL1        0.1130
     78 C           3.3181    8.1209    0.0000 C.3     1  UNL1        0.1119
     79 C           3.2914    9.8528    0.0000 C.3     1  UNL1        0.0730
     80 H          11.6212   -1.1795    0.0000 H       1  UNL1        0.0315
     81 H          12.5141   -2.7368    0.0000 H       1  UNL1        0.0313
     82 H          13.2748   -0.8506    0.0000 H       1  UNL1        0.0271
     83 H          12.8651   -0.1656    0.0000 H       1  UNL1        0.0271
     84 H          12.8906   -2.3744    0.0000 H       1  UNL1        0.0268
     85 H          13.2844   -1.6800    0.0000 H       1  UNL1        0.0268
     86 H          10.1328    1.8479    0.0000 H       1  UNL1        0.0351
     87 H           9.4078   -0.1497    0.0000 H       1  UNL1        0.0310
     88 H           9.8090   -0.8384    0.0000 H       1  UNL1        0.0310
     89 H           9.7225   -1.7314    0.0000 H       1  UNL1        0.0271
     90 H           9.3127   -2.4165    0.0000 H       1  UNL1        0.0271
     91 H          12.8618    0.6776    0.0000 H       1  UNL1        0.0274
     92 H          13.2663    1.3658    0.0000 H       1  UNL1        0.0274
     93 H          13.2695    2.1952    0.0000 H       1  UNL1        0.0271
     94 H          12.8703    2.8866    0.0000 H       1  UNL1        0.0271
     95 H          12.8450   -0.6810    0.0000 H       1  UNL1        0.0235
     96 H          13.3451    0.0392    0.0000 H       1  UNL1        0.0235
     97 H          12.6249    0.5393    0.0000 H       1  UNL1        0.0235
     98 H          10.3122   -4.2575    0.0000 H       1  UNL1        0.0603
     99 H          10.3227   -0.7541    0.0000 H       1  UNL1        0.0235
    100 H           9.4749   -0.9778    0.0000 H       1  UNL1        0.0235
    101 H           9.6985   -1.8256    0.0000 H       1  UNL1        0.0235
    102 H           9.4768    1.0530    0.0000 H       1  UNL1        0.0572
    103 H           9.3026   -3.2892    0.0000 H       1  UNL1        0.0290
    104 H           9.6964   -3.9836    0.0000 H       1  UNL1        0.0290
    105 H          12.6271   -0.0291    0.0000 H       1  UNL1        0.0238
    106 H          13.3434    0.4765    0.0000 H       1  UNL1        0.0238
    107 H          12.8377    1.1928    0.0000 H       1  UNL1        0.0238
    108 H           9.2922    2.9010    0.0000 H       1  UNL1        0.0282
    109 H           9.7072    2.2191    0.0000 H       1  UNL1        0.0282
    110 H          12.3696    3.7976    0.0000 H       1  UNL1        0.0271
    111 H          11.9704    4.4889    0.0000 H       1  UNL1        0.0271
    112 H          13.3682   -3.1782    0.0000 H       1  UNL1        0.0563
    113 H          12.6749   -2.7849    0.0000 H       1  UNL1        0.0563
    114 H          11.7594   -4.5787    0.0000 H       1  UNL1        0.0237
    115 H          12.6081   -4.7991    0.0000 H       1  UNL1        0.0237
    116 H          12.8285   -3.9504    0.0000 H       1  UNL1        0.0237
    117 H          11.2129    4.9224    0.0000 H       1  UNL1        0.0276
    118 H          10.4146    4.9162    0.0000 H       1  UNL1        0.0276
    119 H          12.9313    2.7977    0.0000 H       1  UNL1        0.0235
    120 H          13.1484    3.6472    0.0000 H       1  UNL1        0.0235
    121 H          12.2989    3.8643    0.0000 H       1  UNL1        0.0235
    122 H           8.8747    4.4960    0.0000 H       1  UNL1        0.0240
    123 H           8.2643    3.8666    0.0000 H       1  UNL1        0.0240
    124 H           8.8938    3.2562    0.0000 H       1  UNL1        0.0240
    125 H          10.5207   -5.7585    0.0000 H       1  UNL1        0.0938
    126 H          13.9139   -4.2520    0.0000 H       1  UNL1        0.2094
    127 H           9.9837   -7.0685    0.0000 H       1  UNL1        0.0675
    128 H           8.5808   -7.2585    0.0000 H       1  UNL1        0.0648
    129 H           8.2517   -4.8285    0.0000 H       1  UNL1        0.0741
    130 H           7.7148   -6.1385    0.0000 H       1  UNL1        0.0652
    131 H           9.9640    6.4912    0.0000 H       1  UNL1        0.1085
    132 H          10.1324    7.8969    0.0000 H       1  UNL1        0.0683
    133 H          10.3128   -7.6385    0.0000 H       1  UNL1        0.0938
    134 H           8.5808   -8.2585    0.0000 H       1  UNL1        0.2100
    135 H           8.9992    8.7455    0.0000 H       1  UNL1        0.0648
    136 H           7.3857   -7.5685    0.0000 H       1  UNL1        0.2100
    137 H           7.5292    6.7828    0.0000 H       1  UNL1        0.0647
    138 H           7.6976    8.1885    0.0000 H       1  UNL1        0.0647
    139 H          11.7158   -7.8285    0.0000 H       1  UNL1        0.0671
    140 H          11.1323    7.9123    0.0000 H       1  UNL1        0.2102
    141 H          12.2527   -9.1385    0.0000 H       1  UNL1        0.0648
    142 H           6.2518    7.0880    0.0000 H       1  UNL1        0.0587
    143 H           6.9481    6.7001    0.0000 H       1  UNL1        0.0587
    144 H           9.4468   -9.1385    0.0000 H       1  UNL1        0.0647
    145 H           5.9827   -5.1385    0.0000 H       1  UNL1        0.2951
    146 H          10.3128  -10.2585    0.0000 H       1  UNL1        0.0647
    147 H           9.4858    9.6192    0.0000 H       1  UNL1        0.2100
    148 H           8.1059    9.5979    0.0000 H       1  UNL1        0.2100
    149 H          13.1187   -8.2585    0.0000 H       1  UNL1        0.2101
    150 H           8.9057   -9.3659    0.0000 H       1  UNL1        0.0584
    151 H           8.5071  -10.0562    0.0000 H       1  UNL1        0.0584
    152 H          12.5818  -10.5685    0.0000 H       1  UNL1        0.2100
    153 H          11.3867  -11.2585    0.0000 H       1  UNL1        0.2100
    154 H           5.6361    7.6197    0.0000 H       1  UNL1        0.0937
    155 H           8.5808  -11.2585    0.0000 H       1  UNL1        0.2095
    156 H           4.5296    6.7365    0.0000 H       1  UNL1        0.0671
    157 H           3.2115    7.2532    0.0000 H       1  UNL1        0.0648
    158 H           4.1064    9.5362    0.0000 H       1  UNL1        0.0647
    159 H           2.9999    8.6530    0.0000 H       1  UNL1        0.0647
    160 H           5.0429    5.8783    0.0000 H       1  UNL1        0.2101
    161 H           2.8104   10.2439    0.0000 H       1  UNL1        0.0584
    162 H           2.8227    9.4470    0.0000 H       1  UNL1        0.0584
    163 H           2.7249    6.3795    0.0000 H       1  UNL1        0.2100
    164 H           2.0000    8.6376    0.0000 H       1  UNL1        0.2100
    165 H           3.4598   11.2585    0.0000 H       1  UNL1        0.2095
@<TRIPOS>BOND
     1    42     1    1
     2    56     1    1
     3     2    50    1
     4     2   126    1
     5     3    55    1
     6    61     3    1
     7     4    56    1
     8     4    59    1
     9     5    55    2
    10    57     6    1
    11    63     6    1
    12    58     7    1
    13     7   134    1
    14     8    61    1
    15     8    66    1
    16    60     9    1
    17     9   136    1
    18    10    63    1
    19    10    71    1
    20    62    11    1
    21    11   140    1
    22    12    64    1
    23    12   145    1
    24    13    64    2
    25    65    14    1
    26    14   147    1
    27    67    15    1
    28    15   148    1
    29    68    16    1
    30    16   149    1
    31    69    17    1
    32    17   152    1
    33    18    70    1
    34    74    18    1
    35    72    19    1
    36    19   153    1
    37    20    73    1
    38    20   155    1
    39    21    74    1
    40    21    77    1
    41    75    22    1
    42    22   160    1
    43    76    23    1
    44    23   163    1
    45    78    24    1
    46    24   164    1
    47    25    79    1
    48    25   165    1
    49    26    27    1
    50    26    29    1
    51    26    31    1
    52    26    41    1
    53    27    28    1
    54    27    36    1
    55    27    80    1
    56    28    30    1
    57    28    37    1
    58    28    43    1
    59    29    34    1
    60    29    39    1
    61    29    46    1
    62    30    32    1
    63    30    33    1
    64    30    81    1
    65    31    33    1
    66    31    82    1
    67    31    83    1
    68    32    42    1
    69    32    50    1
    70    32    51    1
    71    33    84    1
    72    33    85    1
    73    34    35    1
    74    34    44    2
    75    35    38    1
    76    35    47    1
    77    35    86    1
    78    36    44    1
    79    36    87    1
    80    36    88    1
    81    37    45    1
    82    37    89    1
    83    37    90    1
    84    38    40    1
    85    38    48    1
    86    38    53    1
    87    39    40    1
    88    39    91    1
    89    39    92    1
    90    40    93    1
    91    40    94    1
    92    41    95    1
    93    41    96    1
    94    41    97    1
    95    42    45    1
    96    42    98    1
    97    43    99    1
    98    43   100    1
    99    43   101    1
   100    44   102    1
   101    45   103    1
   102    45   104    1
   103    46   105    1
   104    46   106    1
   105    46   107    1
   106    47    49    1
   107    47   108    1
   108    47   109    1
   109    48    52    1
   110    48   110    1
   111    48   111    1
   112    49    52    1
   113    49    54    1
   114    49    55    1
   115    50   112    1
   116    50   113    1
   117    51   114    1
   118    51   115    1
   119    51   116    1
   120    52   117    1
   121    52   118    1
   122    53   119    1
   123    53   120    1
   124    53   121    1
   125    54   122    1
   126    54   123    1
   127    54   124    1
   128    56    57    1
   129    56   125    1
   130    57    58    1
   131    57   127    1
   132    58    60    1
   133    58   128    1
   134    59    60    1
   135    59    64    1
   136    59   129    1
   137    60   130    1
   138    61    62    1
   139    61   131    1
   140    62    65    1
   141    62   132    1
   142    63    68    1
   143    63   133    1
   144    65    67    1
   145    65   135    1
   146    66    67    1
   147    66    70    1
   148    66   137    1
   149    67   138    1
   150    68    69    1
   151    68   139    1
   152    69    72    1
   153    69   141    1
   154    70   142    1
   155    70   143    1
   156    71    72    1
   157    71    73    1
   158    71   144    1
   159    72   146    1
   160    73   150    1
   161    73   151    1
   162    74    75    1
   163    74   154    1
   164    75    76    1
   165    75   156    1
   166    76    78    1
   167    76   157    1
   168    77    78    1
   169    77    79    1
   170    77   158    1
   171    78   159    1
   172    79   161    1
   173    79   162    1
