@<TRIPOS>MOLECULE
IMPHY008049
 13 13 0 0 0
SMALL
GASTEIGER

@<TRIPOS>ATOM
      1 O           3.7320    1.3450    0.0000 O.2     1  UNL1       -0.5031
      2 O           2.0000    0.3450    0.0000 O.2     1  UNL1       -0.2840
      3 O           5.4641   -1.6550    0.0000 O.2     1  UNL1       -0.2878
      4 C           3.7320    0.3450    0.0000 C.2     1  UNL1        0.1672
      5 C           2.8660   -0.1550    0.0000 C.2     1  UNL1        0.2202
      6 C           4.5981   -0.1550    0.0000 C.2     1  UNL1        0.0304
      7 C           4.5981   -1.1550    0.0000 C.2     1  UNL1        0.1827
      8 C           2.8660   -1.1550    0.0000 C.2     1  UNL1       -0.0076
      9 C           3.7320   -1.6550    0.0000 C.2     1  UNL1       -0.0111
     10 H           5.1350    0.1550    0.0000 H       1  UNL1        0.0694
     11 H           2.3291   -1.4650    0.0000 H       1  UNL1        0.0658
     12 H           3.7320   -2.2750    0.0000 H       1  UNL1        0.0657
     13 H           4.2690    1.6550    0.0000 H       1  UNL1        0.2923
@<TRIPOS>BOND
     1     1     4    1
     2     1    13    1
     3     2     5    2
     4     3     7    2
     5     4     5    1
     6     4     6    2
     7     5     8    1
     8     6     7    1
     9     6    10    1
    10     7     9    1
    11     8     9    2
    12     8    11    1
    13     9    12    1
