@<TRIPOS>MOLECULE
IMPHY005871
 54 55 0 0 0
SMALL
GASTEIGER

@<TRIPOS>ATOM
      1 O           4.5981   -1.6900    0.0000 O.3     1  UNL1       -0.5052
      2 O           8.0622   -3.6900    0.0000 O.3     1  UNL1       -0.4236
      3 O           8.0622   -1.6900    0.0000 O.2     1  UNL1       -0.2638
      4 O           5.4641   -0.1900    0.0000 O.2     1  UNL1       -0.2870
      5 O           2.0000   -5.1900    0.0000 O.3     1  UNL1       -0.5068
      6 N           7.1962   -3.1900    0.0000 N.ar    1  UNL1       -0.1531
      7 C           9.7942    4.3100    0.0000 C.3     1  UNL1       -0.0254
      8 C           9.7942    5.3100    0.0000 C.3     1  UNL1       -0.0499
      9 C           8.9282    3.8100    0.0000 C.2     1  UNL1       -0.0783
     10 C          10.6603    3.8100    0.0000 C.3     1  UNL1       -0.0589
     11 C          10.6603    5.8100    0.0000 C.3     1  UNL1       -0.0648
     12 C           8.9282    2.8100    0.0000 C.2     1  UNL1       -0.0541
     13 C           5.4641   -3.1900    0.0000 C.ar    1  UNL1        0.0440
     14 C           4.5981   -3.6900    0.0000 C.ar    1  UNL1       -0.0126
     15 C           5.4641   -2.1900    0.0000 C.ar    1  UNL1        0.1422
     16 C           6.3301   -1.6900    0.0000 C.ar    1  UNL1        0.1307
     17 C           9.7942    2.3100    0.0000 C.3     1  UNL1       -0.0400
     18 C           8.0622    2.3100    0.0000 C.2     1  UNL1       -0.0591
     19 C           6.3301   -3.6900    0.0000 C.ar    1  UNL1        0.0592
     20 C           7.1962   -2.1900    0.0000 C.ar    1  UNL1        0.2976
     21 C           3.7320   -3.1900    0.0000 C.ar    1  UNL1       -0.0504
     22 C           4.5981   -4.6900    0.0000 C.ar    1  UNL1       -0.0504
     23 C           6.3301   -0.6900    0.0000 C.2     1  UNL1        0.1949
     24 C           8.0622    1.3100    0.0000 C.2     1  UNL1       -0.0614
     25 C           7.1962   -0.1900    0.0000 C.2     1  UNL1       -0.0140
     26 C           2.8660   -3.6900    0.0000 C.ar    1  UNL1       -0.0196
     27 C           3.7320   -5.1900    0.0000 C.ar    1  UNL1       -0.0196
     28 C           7.1962    0.8100    0.0000 C.2     1  UNL1       -0.0581
     29 C           2.8660   -4.6900    0.0000 C.ar    1  UNL1        0.1169
     30 H           9.7942    3.6900    0.0000 H       1  UNL1        0.0340
     31 H           9.5822    5.8926    0.0000 H       1  UNL1        0.0268
     32 H           9.1836    5.2023    0.0000 H       1  UNL1        0.0268
     33 H           8.3913    4.1200    0.0000 H       1  UNL1        0.0577
     34 H          10.3503    3.2731    0.0000 H       1  UNL1        0.0235
     35 H          11.1972    3.5000    0.0000 H       1  UNL1        0.0235
     36 H          10.9703    4.3469    0.0000 H       1  UNL1        0.0235
     37 H          10.9703    5.2731    0.0000 H       1  UNL1        0.0230
     38 H          11.1972    6.1200    0.0000 H       1  UNL1        0.0230
     39 H          10.3503    6.3469    0.0000 H       1  UNL1        0.0230
     40 H           9.4842    1.7731    0.0000 H       1  UNL1        0.0277
     41 H          10.3312    2.0000    0.0000 H       1  UNL1        0.0277
     42 H          10.1042    2.8469    0.0000 H       1  UNL1        0.0277
     43 H           7.5252    2.6200    0.0000 H       1  UNL1        0.0620
     44 H           6.3301   -4.3100    0.0000 H       1  UNL1        0.0853
     45 H           3.7320   -2.5700    0.0000 H       1  UNL1        0.0625
     46 H           5.1350   -5.0000    0.0000 H       1  UNL1        0.0625
     47 H           8.5991    1.0000    0.0000 H       1  UNL1        0.0618
     48 H           7.7331   -0.5000    0.0000 H       1  UNL1        0.0656
     49 H           2.3291   -3.3800    0.0000 H       1  UNL1        0.0654
     50 H           3.7320   -5.8100    0.0000 H       1  UNL1        0.0654
     51 H           6.6592    1.1200    0.0000 H       1  UNL1        0.0619
     52 H           4.5981   -1.0700    0.0000 H       1  UNL1        0.2922
     53 H           8.0622   -4.3100    0.0000 H       1  UNL1        0.3258
     54 H           2.0000   -5.8100    0.0000 H       1  UNL1        0.2921
@<TRIPOS>BOND
     1     1    15    1
     2     1    52    1
     3     2     6    1
     4     2    53    1
     5     3    20    2
     6     4    23    2
     7     5    29    1
     8     5    54    1
     9     6    19   ar
    10     6    20   ar
    11     7     8    1
    12     7     9    1
    13     7    10    1
    14     7    30    1
    15     8    11    1
    16     8    31    1
    17     8    32    1
    18     9    12    2
    19     9    33    1
    20    10    34    1
    21    10    35    1
    22    10    36    1
    23    11    37    1
    24    11    38    1
    25    11    39    1
    26    12    17    1
    27    12    18    1
    28    13    14    1
    29    13    15   ar
    30    13    19   ar
    31    14    21   ar
    32    14    22   ar
    33    15    16   ar
    34    16    20   ar
    35    16    23    1
    36    17    40    1
    37    17    41    1
    38    17    42    1
    39    18    24    2
    40    18    43    1
    41    19    44    1
    42    21    26   ar
    43    21    45    1
    44    22    27   ar
    45    22    46    1
    46    23    25    1
    47    24    28    1
    48    24    47    1
    49    25    28    2
    50    25    48    1
    51    26    29   ar
    52    26    49    1
    53    27    29   ar
    54    27    50    1
    55    28    51    1
