@<TRIPOS>MOLECULE
IMPHY004721
 39 42 0 0 0
SMALL
GASTEIGER

@<TRIPOS>ATOM
      1 O           6.3739    0.6598    0.0000 O.2     1  UNL1       -0.4511
      2 O           5.4558   -1.8887    0.0000 O.3     1  UNL1       -0.4461
      3 O           4.6037   -0.3371    0.0000 O.3     1  UNL1       -0.3861
      4 O           8.9720   -0.8402    0.0000 O.2     1  UNL1       -0.2863
      5 O           9.8761    0.6566    0.0000 O.3     1  UNL1       -0.5027
      6 O           9.8919    2.7049    0.0000 O.3     1  UNL1       -0.5009
      7 O           8.1180    3.7290    0.0000 O.3     1  UNL1       -0.5031
      8 O           2.8718   -0.3171    0.0000 O.3     1  UNL1       -0.4370
      9 O           3.7204   -1.8270    0.0000 O.2     1  UNL1       -0.2027
     10 C           7.2399   -0.8402    0.0000 C.ar    1  UNL1        0.0785
     11 C           6.3739   -0.3402    0.0000 C.ar    1  UNL1        0.1976
     12 C           7.2560   -1.8817    0.0000 C.ar    1  UNL1        0.0311
     13 C           5.4639   -0.8471    0.0000 C.3     1  UNL1        0.3085
     14 C           8.1059    0.6598    0.0000 C.ar    1  UNL1        0.1097
     15 C           8.1059   -0.3402    0.0000 C.ar    1  UNL1        0.2044
     16 C           6.3579   -2.4095    0.0000 C.ar    1  UNL1        0.1334
     17 C           7.2399    1.1598    0.0000 C.ar    1  UNL1        0.1464
     18 C           8.2079   -2.4024    0.0000 C.ar    1  UNL1       -0.0503
     19 C           9.0159    1.1666    0.0000 C.ar    1  UNL1        0.1766
     20 C           7.2238    2.2013    0.0000 C.ar    1  UNL1        0.0267
     21 C           6.3496   -3.4944    0.0000 C.ar    1  UNL1       -0.0192
     22 C           9.0239    2.2082    0.0000 C.ar    1  UNL1        0.2015
     23 C           8.1219    2.7290    0.0000 C.ar    1  UNL1        0.1655
     24 C           8.2246   -3.4872    0.0000 C.ar    1  UNL1       -0.0610
     25 C           7.2892   -4.0370    0.0000 C.ar    1  UNL1       -0.0583
     26 C           3.7319   -0.8270    0.0000 C.2     1  UNL1        0.5132
     27 C           2.0000   -0.8070    0.0000 C.3     1  UNL1        0.0851
     28 H           5.4722   -0.2271    0.0000 H       1  UNL1        0.1298
     29 H           8.7387   -2.0821    0.0000 H       1  UNL1        0.0625
     30 H           6.6834    2.5051    0.0000 H       1  UNL1        0.0692
     31 H           5.8114   -3.8024    0.0000 H       1  UNL1        0.0654
     32 H           8.7651   -3.7910    0.0000 H       1  UNL1        0.0618
     33 H           7.2916   -4.6570    0.0000 H       1  UNL1        0.0619
     34 H          10.4166    0.9604    0.0000 H       1  UNL1        0.2923
     35 H           9.8943    3.3249    0.0000 H       1  UNL1        0.2924
     36 H           7.5799    4.0370    0.0000 H       1  UNL1        0.2923
     37 H           1.6962   -0.2665    0.0000 H       1  UNL1        0.0662
     38 H           1.4595   -1.1108    0.0000 H       1  UNL1        0.0662
     39 H           2.3038   -1.3475    0.0000 H       1  UNL1        0.0662
@<TRIPOS>BOND
     1     1    11   ar
     2     1    17   ar
     3     2    13    1
     4     2    16    1
     5     3    13    1
     6     3    26    1
     7     4    15    2
     8     5    19    1
     9     5    34    1
    10     6    22    1
    11     6    35    1
    12     7    23    1
    13     7    36    1
    14     8    26    1
    15     8    27    1
    16     9    26    2
    17    10    11   ar
    18    10    12    1
    19    10    15   ar
    20    11    13    1
    21    12    16   ar
    22    12    18   ar
    23    13    28    1
    24    14    15   ar
    25    14    17   ar
    26    14    19   ar
    27    16    21   ar
    28    17    20   ar
    29    18    24   ar
    30    18    29    1
    31    19    22   ar
    32    20    23   ar
    33    20    30    1
    34    21    25   ar
    35    21    31    1
    36    22    23   ar
    37    24    25   ar
    38    24    32    1
    39    25    33    1
    40    27    37    1
    41    27    38    1
    42    27    39    1
