@<TRIPOS>MOLECULE
IMPHY009351
 20 20 0 0 0
SMALL
GASTEIGER

@<TRIPOS>ATOM
      1 O           4.2690   -2.3100    0.0000 O.3     1  UNL1       -0.4915
      2 O           2.5369   -1.3100    0.0000 O.3     1  UNL1       -0.5033
      3 O           5.1350    2.1900    0.0000 O.3     1  UNL1       -0.4771
      4 O           3.4030    2.1900    0.0000 O.2     1  UNL1       -0.2451
      5 C           4.2690   -1.3100    0.0000 C.ar    1  UNL1        0.1613
      6 C           4.2690    0.6900    0.0000 C.ar    1  UNL1        0.0625
      7 C           3.4030   -0.8100    0.0000 C.ar    1  UNL1        0.1592
      8 C           3.4030    0.1900    0.0000 C.ar    1  UNL1       -0.0026
      9 C           5.1350   -0.8100    0.0000 C.ar    1  UNL1       -0.0155
     10 C           5.1350    0.1900    0.0000 C.ar    1  UNL1       -0.0441
     11 C           4.2690    1.6900    0.0000 C.2     1  UNL1        0.3369
     12 C           5.1350   -2.8100    0.0000 C.3     1  UNL1        0.0790
     13 H           2.8660    0.5000    0.0000 H       1  UNL1        0.0663
     14 H           5.6720   -1.1200    0.0000 H       1  UNL1        0.0655
     15 H           5.6720    0.5000    0.0000 H       1  UNL1        0.0627
     16 H           4.8250   -3.3469    0.0000 H       1  UNL1        0.0660
     17 H           5.6720   -3.1200    0.0000 H       1  UNL1        0.0660
     18 H           5.4450   -2.2731    0.0000 H       1  UNL1        0.0660
     19 H           2.0000   -1.0000    0.0000 H       1  UNL1        0.2923
     20 H           5.1350    2.8100    0.0000 H       1  UNL1        0.2954
@<TRIPOS>BOND
     1     1     5    1
     2     1    12    1
     3     2     7    1
     4     2    19    1
     5     3    11    1
     6     3    20    1
     7     4    11    2
     8     5     7   ar
     9     5     9   ar
    10     6     8   ar
    11     6    10   ar
    12     6    11    1
    13     7     8   ar
    14     8    13    1
    15     9    10   ar
    16     9    14    1
    17    10    15    1
    18    12    16    1
    19    12    17    1
    20    12    18    1
