@<TRIPOS>MOLECULE
IMPHY009989
 92 96 0 0 0
SMALL
GASTEIGER

@<TRIPOS>ATOM
      1 O           8.2629    0.6146    0.0000 O.3     1  UNL1       -0.3912
      2 O           5.4679   -2.9377    0.0000 O.3     1  UNL1       -0.4578
      3 O           9.1169   -3.9546    0.0000 O.2     1  UNL1       -0.2924
      4 O           4.6077   -1.4344    0.0000 O.2     1  UNL1       -0.2450
      5 C          10.8610    0.1146    0.0000 C.3     1  UNL1       -0.0201
      6 C          10.8610   -0.8854    0.0000 C.3     1  UNL1       -0.0134
      7 C          11.8072    0.4194    0.0000 C.3     1  UNL1       -0.0324
      8 C           9.1290   -0.8854    0.0000 C.3     1  UNL1        0.0128
      9 C           8.2190   -1.3922    0.0000 C.3     1  UNL1       -0.0132
     10 C           9.9950    0.6146    0.0000 C.3     1  UNL1       -0.0201
     11 C           9.9950   -1.3854    0.0000 C.2     1  UNL1       -0.0566
     12 C           9.1290    0.1146    0.0000 C.3     1  UNL1        0.0628
     13 C          11.8072   -1.1901    0.0000 C.3     1  UNL1       -0.0457
     14 C          12.3908   -0.3854    0.0000 C.3     1  UNL1       -0.0489
     15 C           8.2109   -2.4338    0.0000 C.3     1  UNL1        0.0309
     16 C          12.1179    1.3699    0.0000 C.3     1  UNL1       -0.0405
     17 C          10.8610    1.1146    0.0000 C.3     1  UNL1       -0.0587
     18 C           7.2921   -0.8281    0.0000 C.3     1  UNL1       -0.0430
     19 C          10.0110   -2.4269    0.0000 C.2     1  UNL1       -0.0190
     20 C           7.2755   -2.9835    0.0000 C.3     1  UNL1       -0.0053
     21 C           8.2267   -0.3922    0.0000 C.3     1  UNL1       -0.0583
     22 C           9.1130   -2.9546    0.0000 C.2     1  UNL1        0.1598
     23 C           6.3442   -1.3561    0.0000 C.3     1  UNL1       -0.0151
     24 C           6.3359   -2.4410    0.0000 C.3     1  UNL1        0.1041
     25 C          13.0964    1.5761    0.0000 C.3     1  UNL1       -0.0499
     26 C          11.4501    2.1142    0.0000 C.3     1  UNL1       -0.0621
     27 C          13.4071    2.5266    0.0000 C.3     1  UNL1       -0.0497
     28 C          14.3856    2.7328    0.0000 C.3     1  UNL1       -0.0389
     29 C          14.6962    3.6834    0.0000 C.3     1  UNL1       -0.0439
     30 C          15.0534    1.9886    0.0000 C.3     1  UNL1       -0.0528
     31 C           4.6038   -2.4344    0.0000 C.2     1  UNL1        0.3394
     32 C          15.6747    3.8896    0.0000 C.3     1  UNL1       -0.0624
     33 C          14.0284    4.4277    0.0000 C.3     1  UNL1       -0.0624
     34 C          16.0319    2.1948    0.0000 C.3     1  UNL1       -0.0650
     35 C           3.7359   -2.9310    0.0000 C.ar    1  UNL1        0.0590
     36 C           2.8718   -2.4277    0.0000 C.ar    1  UNL1       -0.0478
     37 C           3.7320   -3.9310    0.0000 C.ar    1  UNL1       -0.0478
     38 C           2.0038   -2.9243    0.0000 C.ar    1  UNL1       -0.0610
     39 C           2.8641   -4.4277    0.0000 C.ar    1  UNL1       -0.0610
     40 C           2.0000   -3.9243    0.0000 C.ar    1  UNL1       -0.0617
     41 H          10.9510   -1.7306    0.0000 H       1  UNL1        0.0351
     42 H          12.6469    0.5512    0.0000 H       1  UNL1        0.0309
     43 H           9.8651   -0.4604    0.0000 H       1  UNL1        0.0376
     44 H          10.3935    1.0896    0.0000 H       1  UNL1        0.0296
     45 H           9.5965    1.0896    0.0000 H       1  UNL1        0.0296
     46 H           8.5920   -0.1954    0.0000 H       1  UNL1        0.0599
     47 H          11.5562   -1.7570    0.0000 H       1  UNL1        0.0271
     48 H          12.3446   -1.4993    0.0000 H       1  UNL1        0.0271
     49 H          12.8517   -0.8001    0.0000 H       1  UNL1        0.0268
     50 H          12.8517    0.0294    0.0000 H       1  UNL1        0.0268
     51 H           8.2142   -3.2838    0.0000 H       1  UNL1        0.0387
     52 H          12.3105    1.9592    0.0000 H       1  UNL1        0.0301
     53 H          11.4810    1.1146    0.0000 H       1  UNL1        0.0235
     54 H          10.8610    1.7346    0.0000 H       1  UNL1        0.0235
     55 H          10.2410    1.1146    0.0000 H       1  UNL1        0.0235
     56 H           7.7003   -0.3615    0.0000 H       1  UNL1        0.0272
     57 H           6.9022   -0.3461    0.0000 H       1  UNL1        0.0272
     58 H          10.5515   -2.7306    0.0000 H       1  UNL1        0.0652
     59 H           6.8782   -3.4595    0.0000 H       1  UNL1        0.0308
     60 H           7.6765   -3.4564    0.0000 H       1  UNL1        0.0308
     61 H           8.8466   -0.3970    0.0000 H       1  UNL1        0.0235
     62 H           8.2314    0.2277    0.0000 H       1  UNL1        0.0235
     63 H           7.6067   -0.3875    0.0000 H       1  UNL1        0.0235
     64 H           6.1397   -0.7708    0.0000 H       1  UNL1        0.0301
     65 H           5.7326   -1.4574    0.0000 H       1  UNL1        0.0301
     66 H           6.3347   -3.0610    0.0000 H       1  UNL1        0.0734
     67 H          13.1170    0.9564    0.0000 H       1  UNL1        0.0268
     68 H          13.7102    1.4888    0.0000 H       1  UNL1        0.0268
     69 H          11.9115    2.5282    0.0000 H       1  UNL1        0.0233
     70 H          11.0360    2.5757    0.0000 H       1  UNL1        0.0233
     71 H          10.9886    1.7001    0.0000 H       1  UNL1        0.0233
     72 H           8.2629    1.2346    0.0000 H       1  UNL1        0.2098
     73 H          13.3865    3.1463    0.0000 H       1  UNL1        0.0268
     74 H          12.7932    2.6140    0.0000 H       1  UNL1        0.0268
     75 H          13.9715    3.1943    0.0000 H       1  UNL1        0.0303
     76 H          15.1103    3.2219    0.0000 H       1  UNL1        0.0298
     77 H          14.5271    1.6609    0.0000 H       1  UNL1        0.0265
     78 H          15.2847    1.4133    0.0000 H       1  UNL1        0.0265
     79 H          15.8026    3.2829    0.0000 H       1  UNL1        0.0232
     80 H          16.2814    4.0174    0.0000 H       1  UNL1        0.0232
     81 H          15.5469    4.4963    0.0000 H       1  UNL1        0.0232
     82 H          14.4899    4.8417    0.0000 H       1  UNL1        0.0232
     83 H          13.6143    4.8891    0.0000 H       1  UNL1        0.0232
     84 H          13.5669    4.0136    0.0000 H       1  UNL1        0.0232
     85 H          16.1598    1.5881    0.0000 H       1  UNL1        0.0230
     86 H          16.6386    2.3226    0.0000 H       1  UNL1        0.0230
     87 H          15.9041    2.8014    0.0000 H       1  UNL1        0.0230
     88 H           2.8742   -1.8077    0.0000 H       1  UNL1        0.0626
     89 H           4.2678   -4.2431    0.0000 H       1  UNL1        0.0626
     90 H           1.4681   -2.6123    0.0000 H       1  UNL1        0.0618
     91 H           2.8617   -5.0477    0.0000 H       1  UNL1        0.0618
     92 H           1.4619   -4.2323    0.0000 H       1  UNL1        0.0618
@<TRIPOS>BOND
     1    12     1    1
     2     1    72    1
     3    24     2    1
     4     2    31    1
     5     3    22    2
     6     4    31    2
     7     5     6    1
     8     5     7    1
     9     5    10    1
    10     5    17    1
    11     6    11    1
    12     6    13    1
    13     6    41    1
    14     7    14    1
    15     7    16    1
    16     7    42    1
    17     8     9    1
    18     8    11    1
    19     8    12    1
    20     8    43    1
    21     9    15    1
    22     9    18    1
    23     9    21    1
    24    10    12    1
    25    10    44    1
    26    10    45    1
    27    11    19    2
    28    12    46    1
    29    13    14    1
    30    13    47    1
    31    13    48    1
    32    14    49    1
    33    14    50    1
    34    15    20    1
    35    15    22    1
    36    15    51    1
    37    16    25    1
    38    16    26    1
    39    16    52    1
    40    17    53    1
    41    17    54    1
    42    17    55    1
    43    18    23    1
    44    18    56    1
    45    18    57    1
    46    19    22    1
    47    19    58    1
    48    20    24    1
    49    20    59    1
    50    20    60    1
    51    21    61    1
    52    21    62    1
    53    21    63    1
    54    23    24    1
    55    23    64    1
    56    23    65    1
    57    24    66    1
    58    25    27    1
    59    25    67    1
    60    25    68    1
    61    26    69    1
    62    26    70    1
    63    26    71    1
    64    28    27    1
    65    27    73    1
    66    27    74    1
    67    28    29    1
    68    28    30    1
    69    28    75    1
    70    29    32    1
    71    29    33    1
    72    29    76    1
    73    30    34    1
    74    30    77    1
    75    30    78    1
    76    31    35    1
    77    32    79    1
    78    32    80    1
    79    32    81    1
    80    33    82    1
    81    33    83    1
    82    33    84    1
    83    34    85    1
    84    34    86    1
    85    34    87    1
    86    35    36   ar
    87    35    37   ar
    88    36    38   ar
    89    36    88    1
    90    37    39   ar
    91    37    89    1
    92    38    40   ar
    93    38    90    1
    94    39    40   ar
    95    39    91    1
    96    40    92    1
