@<TRIPOS>MOLECULE
IMPHY002117
 33 38 0 0 0
SMALL
GASTEIGER

@<TRIPOS>ATOM
      1 O           5.4044   -1.8908    0.0000 O.3     1  UNL1       -0.4520
      2 O           3.9591   -2.7402    0.0000 O.3     1  UNL1       -0.4526
      3 O           8.2670    0.0014    0.0000 O.3     1  UNL1       -0.4526
      4 O           8.2670    1.6778    0.0000 O.3     1  UNL1       -0.4526
      5 O           4.6153    2.8396    0.0000 O.2     1  UNL1       -0.2850
      6 N           2.8911    1.8365    0.0000 N.ar    1  UNL1       -0.2511
      7 C           4.6153   -0.1604    0.0000 C.ar    1  UNL1        0.0382
      8 C           3.7493    0.3396    0.0000 C.ar    1  UNL1        0.0227
      9 C           5.4814    0.3396    0.0000 C.ar    1  UNL1        0.0009
     10 C           5.4814    1.3396    0.0000 C.ar    1  UNL1        0.0353
     11 C           4.6314   -1.2019    0.0000 C.ar    1  UNL1        0.1746
     12 C           2.8393   -0.1672    0.0000 C.ar    1  UNL1       -0.0100
     13 C           3.7493    1.3396    0.0000 C.ar    1  UNL1        0.1193
     14 C           3.7334   -1.7296    0.0000 C.ar    1  UNL1        0.1674
     15 C           4.6153    1.8396    0.0000 C.2     1  UNL1        0.2125
     16 C           6.3753   -0.1950    0.0000 C.ar    1  UNL1       -0.0076
     17 C           2.8313   -1.2088    0.0000 C.ar    1  UNL1       -0.0083
     18 C           6.3753    1.8743    0.0000 C.ar    1  UNL1       -0.0047
     19 C           7.2814    0.3188    0.0000 C.ar    1  UNL1        0.1668
     20 C           7.2814    1.3604    0.0000 C.ar    1  UNL1        0.1669
     21 C           2.0000    0.3610    0.0000 C.ar    1  UNL1       -0.0357
     22 C           4.9898   -2.8396    0.0000 C.3     1  UNL1        0.2333
     23 C           2.0256    1.3524    0.0000 C.ar    1  UNL1        0.0290
     24 C           8.8749    0.8396    0.0000 C.3     1  UNL1        0.2332
     25 H           6.3681   -0.8150    0.0000 H       1  UNL1        0.0662
     26 H           2.2932   -1.5168    0.0000 H       1  UNL1        0.0661
     27 H           6.3681    2.4942    0.0000 H       1  UNL1        0.0663
     28 H           1.4534    0.0683    0.0000 H       1  UNL1        0.0639
     29 H           4.8657   -3.4471    0.0000 H       1  UNL1        0.1166
     30 H           5.5808   -3.0268    0.0000 H       1  UNL1        0.1166
     31 H           1.4949    1.6729    0.0000 H       1  UNL1        0.0830
     32 H           9.3358    0.4249    0.0000 H       1  UNL1        0.1166
     33 H           9.3358    1.2543    0.0000 H       1  UNL1        0.1166
@<TRIPOS>BOND
     1     1    11    1
     2     1    22    1
     3     2    14    1
     4     2    22    1
     5     3    19    1
     6     3    24    1
     7     4    20    1
     8     4    24    1
     9     5    15    2
    10     6    13   ar
    11     6    23   ar
    12     7     8   ar
    13     7     9    1
    14     7    11   ar
    15     8    12   ar
    16     8    13   ar
    17     9    10   ar
    18     9    16   ar
    19    10    15    1
    20    10    18   ar
    21    11    14   ar
    22    12    17   ar
    23    12    21   ar
    24    13    15    1
    25    14    17   ar
    26    16    19   ar
    27    16    25    1
    28    17    26    1
    29    18    20   ar
    30    18    27    1
    31    19    20   ar
    32    21    23   ar
    33    21    28    1
    34    22    29    1
    35    22    30    1
    36    23    31    1
    37    24    32    1
    38    24    33    1
