@<TRIPOS>MOLECULE
IMPHY002159
 46 49 0 0 0
SMALL
GASTEIGER

@<TRIPOS>ATOM
      1 O           3.9030   -0.3917    0.0000 O.3     1  UNL1       -0.3768
      2 O           4.3759   -2.3231    0.0000 O.3     1  UNL1       -0.3852
      3 O           2.8698    0.2228    0.0000 O.3     1  UNL1       -0.4914
      4 O           2.8660    2.2754    0.0000 O.3     1  UNL1       -0.5033
      5 N           7.2787    0.7503    0.0000 N.3     1  UNL1       -0.2886
      6 C           6.4091    0.2483    0.0000 C.3     1  UNL1        0.0714
      7 C           6.6192   -0.7275    0.0000 C.2     1  UNL1       -0.0452
      8 C           5.3894    0.0451    0.0000 C.3     1  UNL1        0.0027
      9 C           8.0187    0.0805    0.0000 C.3     1  UNL1        0.0038
     10 C           7.6119   -0.8311    0.0000 C.3     1  UNL1       -0.0167
     11 C           5.5395    0.7503    0.0000 C.ar    1  UNL1       -0.0161
     12 C           4.8699   -0.6470    0.0000 C.3     1  UNL1        0.0900
     13 C           7.2787    1.7545    0.0000 C.3     1  UNL1        0.0040
     14 C           4.9828   -1.5283    0.0000 C.3     1  UNL1        0.0998
     15 C           6.1128   -1.3702    0.0000 C.2     1  UNL1       -0.0521
     16 C           6.4091    2.2565    0.0000 C.3     1  UNL1       -0.0144
     17 C           5.5395    1.7545    0.0000 C.ar    1  UNL1       -0.0372
     18 C           4.6418    0.2134    0.0000 C.ar    1  UNL1       -0.0108
     19 C           4.6418    2.2914    0.0000 C.ar    1  UNL1       -0.0130
     20 C           3.7320    0.7294    0.0000 C.ar    1  UNL1        0.1616
     21 C           3.7320    1.7754    0.0000 C.ar    1  UNL1        0.1587
     22 C           3.1985   -1.1013    0.0000 C.3     1  UNL1        0.0369
     23 C           2.0000    0.7162    0.0000 C.3     1  UNL1        0.0790
     24 H           5.4411    0.6630    0.0000 H       1  UNL1        0.0316
     25 H           4.8100    0.2657    0.0000 H       1  UNL1        0.0316
     26 H           8.5552   -0.2303    0.0000 H       1  UNL1        0.0430
     27 H           8.3841    0.5813    0.0000 H       1  UNL1        0.0430
     28 H           7.4832   -1.4376    0.0000 H       1  UNL1        0.0323
     29 H           8.2015   -1.0228    0.0000 H       1  UNL1        0.0323
     30 H           5.2497   -0.0613    0.0000 H       1  UNL1        0.0626
     31 H           7.8892    1.6468    0.0000 H       1  UNL1        0.0430
     32 H           7.4907    2.3371    0.0000 H       1  UNL1        0.0430
     33 H           5.2957   -2.0636    0.0000 H       1  UNL1        0.0664
     34 H           6.4215   -1.9078    0.0000 H       1  UNL1        0.0599
     35 H           6.8076    2.7315    0.0000 H       1  UNL1        0.0326
     36 H           6.0106    2.7315    0.0000 H       1  UNL1        0.0326
     37 H           4.6490   -0.4065    0.0000 H       1  UNL1        0.0659
     38 H           4.6490    2.9113    0.0000 H       1  UNL1        0.0658
     39 H           4.6146   -2.8954    0.0000 H       1  UNL1        0.2103
     40 H           2.7585   -0.6645    0.0000 H       1  UNL1        0.0524
     41 H           2.7616   -1.5413    0.0000 H       1  UNL1        0.0524
     42 H           3.6384   -1.5381    0.0000 H       1  UNL1        0.0524
     43 H           2.8660    2.8954    0.0000 H       1  UNL1        0.2923
     44 H           2.3059    1.2555    0.0000 H       1  UNL1        0.0660
     45 H           1.4607    1.0221    0.0000 H       1  UNL1        0.0660
     46 H           1.6941    0.1769    0.0000 H       1  UNL1        0.0660
@<TRIPOS>BOND
     1    12     1    1
     2     1    22    1
     3    14     2    1
     4     2    39    1
     5     3    20    1
     6     3    23    1
     7     4    21    1
     8     4    43    1
     9     5     6    1
    10     5     9    1
    11     5    13    1
    12     6     7    1
    13     6     8    1
    14     6    11    1
    15     7    10    1
    16     7    15    2
    17     8    12    1
    18     8    24    1
    19     8    25    1
    20     9    10    1
    21     9    26    1
    22     9    27    1
    23    10    28    1
    24    10    29    1
    25    11    17   ar
    26    11    18   ar
    27    12    14    1
    28    12    30    1
    29    13    16    1
    30    13    31    1
    31    13    32    1
    32    14    15    1
    33    14    33    1
    34    15    34    1
    35    16    17    1
    36    16    35    1
    37    16    36    1
    38    17    19   ar
    39    18    20   ar
    40    18    37    1
    41    19    21   ar
    42    19    38    1
    43    20    21   ar
    44    22    40    1
    45    22    41    1
    46    22    42    1
    47    23    44    1
    48    23    45    1
    49    23    46    1
