@<TRIPOS>MOLECULE
IMPHY017354
 61 62 0 0 0
SMALL
GASTEIGER

@<TRIPOS>ATOM
      1 O           3.3640   -0.0279    0.0000 O.3     1  UNL1       -0.3630
      2 O           4.5824   -2.2274    0.0000 O.3     1  UNL1       -0.4586
      3 O           6.2151   -2.8056    0.0000 O.2     1  UNL1       -0.2512
      4 C           3.6730    0.9232    0.0000 C.3     1  UNL1        0.0762
      5 C           4.1730   -0.6157    0.0000 C.3     1  UNL1        0.1042
      6 C           4.6730    0.9232    0.0000 C.3     1  UNL1       -0.0205
      7 C           4.9820   -0.0279    0.0000 C.3     1  UNL1       -0.0179
      8 C           2.7071    1.1820    0.0000 C.3     1  UNL1       -0.0172
      9 C           4.9162   -1.2848    0.0000 C.3     1  UNL1        0.1318
     10 C           3.8809    1.9013    0.0000 C.3     1  UNL1       -0.0050
     11 C           3.3640   -1.2035    0.0000 C.3     1  UNL1       -0.0323
     12 C           5.9148   -1.2325    0.0000 C.3     1  UNL1       -0.0093
     13 C           2.4483    2.1479    0.0000 C.3     1  UNL1       -0.0600
     14 C           2.0000    0.4749    0.0000 C.3     1  UNL1       -0.0600
     15 C           4.9249    2.2363    0.0000 C.2     1  UNL1       -0.0823
     16 C           6.3688   -0.3415    0.0000 C.3     1  UNL1       -0.0286
     17 C           5.5940    2.9794    0.0000 C.2     1  UNL1       -0.0762
     18 C           7.2075    0.2032    0.0000 C.2     1  UNL1       -0.0764
     19 C           6.5722    2.7715    0.0000 C.3     1  UNL1       -0.0286
     20 C           5.2318   -2.9878    0.0000 C.2     1  UNL1        0.3043
     21 C           7.1168    1.9328    0.0000 C.3     1  UNL1       -0.0308
     22 C           6.6628    1.0418    0.0000 C.2     1  UNL1       -0.0847
     23 C           5.2850    3.9305    0.0000 C.3     1  UNL1       -0.0438
     24 C           8.1856   -0.0047    0.0000 C.3     1  UNL1       -0.0438
     25 C           4.8980   -3.9305    0.0000 C.3     1  UNL1        0.0332
     26 H           5.2795    1.0521    0.0000 H       1  UNL1        0.0294
     27 H           4.6082    1.5398    0.0000 H       1  UNL1        0.0294
     28 H           5.2920   -0.5648    0.0000 H       1  UNL1        0.0295
     29 H           5.5484    0.2243    0.0000 H       1  UNL1        0.0295
     30 H           2.8676    0.5831    0.0000 H       1  UNL1        0.0323
     31 H           4.3152   -1.4374    0.0000 H       1  UNL1        0.0763
     32 H           3.7962    2.5155    0.0000 H       1  UNL1        0.0335
     33 H           3.2614    1.9237    0.0000 H       1  UNL1        0.0335
     34 H           2.9996   -0.7019    0.0000 H       1  UNL1        0.0258
     35 H           2.8624   -1.5679    0.0000 H       1  UNL1        0.0258
     36 H           3.7284   -1.7050    0.0000 H       1  UNL1        0.0258
     37 H           5.8392   -1.8478    0.0000 H       1  UNL1        0.0305
     38 H           6.5077   -1.4137    0.0000 H       1  UNL1        0.0305
     39 H           3.0472    2.3084    0.0000 H       1  UNL1        0.0233
     40 H           2.2878    2.7468    0.0000 H       1  UNL1        0.0233
     41 H           1.8494    1.9874    0.0000 H       1  UNL1        0.0233
     42 H           1.5616    0.9133    0.0000 H       1  UNL1        0.0233
     43 H           1.5616    0.0365    0.0000 H       1  UNL1        0.0233
     44 H           2.4384    0.0365    0.0000 H       1  UNL1        0.0233
     45 H           5.3443    1.7796    0.0000 H       1  UNL1        0.0572
     46 H           6.2293    0.2626    0.0000 H       1  UNL1        0.0311
     47 H           6.8296   -0.7563    0.0000 H       1  UNL1        0.0311
     48 H           7.1618    2.9631    0.0000 H       1  UNL1        0.0313
     49 H           6.5397    3.3907    0.0000 H       1  UNL1        0.0313
     50 H           7.6120    1.5597    0.0000 H       1  UNL1        0.0310
     51 H           7.5703    2.3557    0.0000 H       1  UNL1        0.0310
     52 H           6.0437    1.0094    0.0000 H       1  UNL1        0.0572
     53 H           5.8747    4.1221    0.0000 H       1  UNL1        0.0274
     54 H           5.0934    4.5202    0.0000 H       1  UNL1        0.0274
     55 H           4.6954    3.7389    0.0000 H       1  UNL1        0.0274
     56 H           8.0567   -0.6112    0.0000 H       1  UNL1        0.0274
     57 H           8.7921   -0.1336    0.0000 H       1  UNL1        0.0274
     58 H           8.3145    0.6017    0.0000 H       1  UNL1        0.0274
     59 H           4.3136   -3.7235    0.0000 H       1  UNL1        0.0342
     60 H           4.6910   -4.5149    0.0000 H       1  UNL1        0.0342
     61 H           5.4824   -4.1374    0.0000 H       1  UNL1        0.0342
@<TRIPOS>BOND
     1     1     4    1
     2     1     5    1
     3     9     2    1
     4     2    20    1
     5     3    20    2
     6     4     6    1
     7     4     8    1
     8     4    10    1
     9     5     7    1
    10     5     9    1
    11     5    11    1
    12     6     7    1
    13     6    26    1
    14     6    27    1
    15     7    28    1
    16     7    29    1
    17     8    13    1
    18     8    14    1
    19     8    30    1
    20     9    12    1
    21     9    31    1
    22    10    15    1
    23    10    32    1
    24    10    33    1
    25    11    34    1
    26    11    35    1
    27    11    36    1
    28    12    16    1
    29    12    37    1
    30    12    38    1
    31    13    39    1
    32    13    40    1
    33    13    41    1
    34    14    42    1
    35    14    43    1
    36    14    44    1
    37    15    17    2
    38    15    45    1
    39    16    18    1
    40    16    46    1
    41    16    47    1
    42    17    19    1
    43    17    23    1
    44    18    22    2
    45    18    24    1
    46    19    21    1
    47    19    48    1
    48    19    49    1
    49    20    25    1
    50    21    22    1
    51    21    50    1
    52    21    51    1
    53    22    52    1
    54    23    53    1
    55    23    54    1
    56    23    55    1
    57    24    56    1
    58    24    57    1
    59    24    58    1
    60    25    59    1
    61    25    60    1
    62    25    61    1
