@<TRIPOS>MOLECULE
IMPHY003421
 66 68 0 0 0
SMALL
GASTEIGER

@<TRIPOS>ATOM
      1 O           6.8671   -1.2500    0.0000 O.3     1  UNL1       -0.3401
      2 O           6.0010    1.2500    0.0000 O.3     1  UNL1       -0.3407
      3 O           5.1350   -1.2500    0.0000 O.3     1  UNL1       -0.3405
      4 O           4.2690    0.2500    0.0000 O.3     1  UNL1       -0.3460
      5 O           5.1350    1.7500    0.0000 O.3     1  UNL1       -0.3405
      6 O           8.5991   -0.2500    0.0000 O.3     1  UNL1       -0.3864
      7 O           8.5991    1.7500    0.0000 O.3     1  UNL1       -0.3841
      8 O           6.8671   -3.2500    0.0000 O.3     1  UNL1       -0.3841
      9 O           5.1350   -4.2500    0.0000 O.3     1  UNL1       -0.3864
     10 O           3.4030   -3.2500    0.0000 O.3     1  UNL1       -0.3865
     11 O           6.8671    2.7500    0.0000 O.3     1  UNL1       -0.3649
     12 O           2.5369    1.2500    0.0000 O.3     1  UNL1       -0.3841
     13 O           2.5369    3.2500    0.0000 O.3     1  UNL1       -0.3864
     14 O           4.2690    4.2500    0.0000 O.3     1  UNL1       -0.3865
     15 O           2.5369   -1.7500    0.0000 O.3     1  UNL1       -0.3924
     16 O           6.0010    4.2500    0.0000 O.3     1  UNL1       -0.3924
     17 C           6.8671   -0.2500    0.0000 C.3     1  UNL1        0.1184
     18 C           6.0010    0.2500    0.0000 C.3     1  UNL1        0.1137
     19 C           7.7331    0.2500    0.0000 C.3     1  UNL1        0.1144
     20 C           6.0010   -1.7500    0.0000 C.3     1  UNL1        0.1884
     21 C           7.7331    1.2500    0.0000 C.3     1  UNL1        0.1339
     22 C           6.0010   -2.7500    0.0000 C.3     1  UNL1        0.1341
     23 C           5.1350   -3.2500    0.0000 C.3     1  UNL1        0.1141
     24 C           4.2690   -2.7500    0.0000 C.3     1  UNL1        0.1119
     25 C           5.1350   -0.2500    0.0000 C.3     1  UNL1        0.0796
     26 C           6.8671    1.7500    0.0000 C.3     1  UNL1        0.1854
     27 C           4.2690   -1.7500    0.0000 C.3     1  UNL1        0.1130
     28 C           4.2690    1.2500    0.0000 C.3     1  UNL1        0.1880
     29 C           3.4030    1.7500    0.0000 C.3     1  UNL1        0.1341
     30 C           3.4030    2.7500    0.0000 C.3     1  UNL1        0.1141
     31 C           4.2690    3.2500    0.0000 C.3     1  UNL1        0.1119
     32 C           5.1350    2.7500    0.0000 C.3     1  UNL1        0.1130
     33 C           3.4030   -1.2500    0.0000 C.3     1  UNL1        0.0730
     34 C           6.0010    3.2500    0.0000 C.3     1  UNL1        0.0730
     35 H           7.4040   -0.5600    0.0000 H       1  UNL1        0.0651
     36 H           5.4641    0.5600    0.0000 H       1  UNL1        0.0647
     37 H           8.2700    0.5600    0.0000 H       1  UNL1        0.0648
     38 H           6.0010   -1.1300    0.0000 H       1  UNL1        0.0938
     39 H           7.7331    1.8700    0.0000 H       1  UNL1        0.0671
     40 H           6.0010   -3.3700    0.0000 H       1  UNL1        0.0671
     41 H           4.5981   -3.5600    0.0000 H       1  UNL1        0.0648
     42 H           3.7320   -2.4400    0.0000 H       1  UNL1        0.0647
     43 H           4.7365   -0.7249    0.0000 H       1  UNL1        0.0587
     44 H           5.5335   -0.7249    0.0000 H       1  UNL1        0.0587
     45 H           6.3301    2.0600    0.0000 H       1  UNL1        0.0935
     46 H           4.2690   -1.1300    0.0000 H       1  UNL1        0.0647
     47 H           3.7320    0.9400    0.0000 H       1  UNL1        0.0937
     48 H           2.8660    2.0600    0.0000 H       1  UNL1        0.0671
     49 H           3.4030    3.3700    0.0000 H       1  UNL1        0.0648
     50 H           4.8059    3.5600    0.0000 H       1  UNL1        0.0647
     51 H           5.6720    2.4400    0.0000 H       1  UNL1        0.0647
     52 H           3.8015   -0.7751    0.0000 H       1  UNL1        0.0584
     53 H           3.0044   -0.7751    0.0000 H       1  UNL1        0.0584
     54 H           9.1360    0.0600    0.0000 H       1  UNL1        0.2100
     55 H           6.2131    2.6674    0.0000 H       1  UNL1        0.0584
     56 H           6.6116    3.3577    0.0000 H       1  UNL1        0.0584
     57 H           8.5991    2.3700    0.0000 H       1  UNL1        0.2101
     58 H           6.8671   -3.8700    0.0000 H       1  UNL1        0.2101
     59 H           4.5981   -4.5600    0.0000 H       1  UNL1        0.2100
     60 H           3.4030   -3.8700    0.0000 H       1  UNL1        0.2100
     61 H           7.4040    3.0600    0.0000 H       1  UNL1        0.2126
     62 H           2.0000    1.5600    0.0000 H       1  UNL1        0.2101
     63 H           2.5369    3.8700    0.0000 H       1  UNL1        0.2100
     64 H           3.7320    4.5600    0.0000 H       1  UNL1        0.2100
     65 H           2.0000   -1.4400    0.0000 H       1  UNL1        0.2095
     66 H           6.5380    4.5600    0.0000 H       1  UNL1        0.2095
@<TRIPOS>BOND
     1    17     1    1
     2    20     1    1
     3     2    18    1
     4     2    26    1
     5     3    20    1
     6     3    27    1
     7     4    25    1
     8    28     4    1
     9     5    28    1
    10     5    32    1
    11    19     6    1
    12     6    54    1
    13    21     7    1
    14     7    57    1
    15    22     8    1
    16     8    58    1
    17    23     9    1
    18     9    59    1
    19    24    10    1
    20    10    60    1
    21    26    11    1
    22    11    61    1
    23    29    12    1
    24    12    62    1
    25    30    13    1
    26    13    63    1
    27    31    14    1
    28    14    64    1
    29    15    33    1
    30    15    65    1
    31    16    34    1
    32    16    66    1
    33    17    18    1
    34    17    19    1
    35    17    35    1
    36    18    25    1
    37    18    36    1
    38    19    21    1
    39    19    37    1
    40    20    22    1
    41    20    38    1
    42    21    26    1
    43    21    39    1
    44    22    23    1
    45    22    40    1
    46    23    24    1
    47    23    41    1
    48    24    27    1
    49    24    42    1
    50    25    43    1
    51    25    44    1
    52    26    45    1
    53    27    33    1
    54    27    46    1
    55    28    29    1
    56    28    47    1
    57    29    30    1
    58    29    48    1
    59    30    31    1
    60    30    49    1
    61    31    32    1
    62    31    50    1
    63    32    34    1
    64    32    51    1
    65    33    52    1
    66    33    53    1
    67    34    55    1
    68    34    56    1
