@<TRIPOS>MOLECULE
IMPHY015301
 43 42 0 0 0
SMALL
GASTEIGER

@<TRIPOS>ATOM
      1 O           2.8660   -0.7500    0.0000 O.2     1  UNL1       -0.2977
      2 C           8.0622    0.2500    0.0000 C.3     1  UNL1       -0.0531
      3 C           8.9282    0.7500    0.0000 C.3     1  UNL1       -0.0531
      4 C           7.1962    0.7500    0.0000 C.3     1  UNL1       -0.0531
      5 C           9.7942    0.2500    0.0000 C.3     1  UNL1       -0.0531
      6 C           6.3301    0.2500    0.0000 C.3     1  UNL1       -0.0530
      7 C          10.6603    0.7500    0.0000 C.3     1  UNL1       -0.0531
      8 C           5.4641    0.7500    0.0000 C.3     1  UNL1       -0.0527
      9 C          11.5263    0.2500    0.0000 C.3     1  UNL1       -0.0533
     10 C           4.5981    0.2500    0.0000 C.3     1  UNL1       -0.0464
     11 C          12.3923    0.7500    0.0000 C.3     1  UNL1       -0.0559
     12 C           3.7320    0.7500    0.0000 C.3     1  UNL1        0.0055
     13 C          13.2583    0.2500    0.0000 C.3     1  UNL1       -0.0653
     14 C           2.8660    0.2500    0.0000 C.2     1  UNL1        0.1303
     15 C           2.0000    0.7500    0.0000 C.3     1  UNL1       -0.0061
     16 H           7.6636   -0.2249    0.0000 H       1  UNL1        0.0265
     17 H           8.4607   -0.2249    0.0000 H       1  UNL1        0.0265
     18 H           9.3267    1.2250    0.0000 H       1  UNL1        0.0265
     19 H           8.5297    1.2250    0.0000 H       1  UNL1        0.0265
     20 H           7.5947    1.2250    0.0000 H       1  UNL1        0.0265
     21 H           6.7976    1.2250    0.0000 H       1  UNL1        0.0265
     22 H           9.3957   -0.2249    0.0000 H       1  UNL1        0.0265
     23 H          10.1928   -0.2249    0.0000 H       1  UNL1        0.0265
     24 H           5.9316   -0.2249    0.0000 H       1  UNL1        0.0265
     25 H           6.7287   -0.2249    0.0000 H       1  UNL1        0.0265
     26 H          11.0588    1.2250    0.0000 H       1  UNL1        0.0265
     27 H          10.2617    1.2250    0.0000 H       1  UNL1        0.0265
     28 H           5.8626    1.2250    0.0000 H       1  UNL1        0.0265
     29 H           5.0656    1.2250    0.0000 H       1  UNL1        0.0265
     30 H          11.1278   -0.2249    0.0000 H       1  UNL1        0.0265
     31 H          11.9248   -0.2249    0.0000 H       1  UNL1        0.0265
     32 H           4.1996   -0.2249    0.0000 H       1  UNL1        0.0269
     33 H           4.9966   -0.2249    0.0000 H       1  UNL1        0.0269
     34 H          12.7908    1.2250    0.0000 H       1  UNL1        0.0263
     35 H          11.9938    1.2250    0.0000 H       1  UNL1        0.0263
     36 H           4.1306    1.2250    0.0000 H       1  UNL1        0.0341
     37 H           3.3335    1.2250    0.0000 H       1  UNL1        0.0341
     38 H          12.9483   -0.2869    0.0000 H       1  UNL1        0.0230
     39 H          13.7953   -0.0600    0.0000 H       1  UNL1        0.0230
     40 H          13.5683    0.7869    0.0000 H       1  UNL1        0.0230
     41 H           2.3100    1.2869    0.0000 H       1  UNL1        0.0306
     42 H           1.4631    1.0600    0.0000 H       1  UNL1        0.0306
     43 H           1.6900    0.2131    0.0000 H       1  UNL1        0.0306
@<TRIPOS>BOND
     1     1    14    2
     2     2     3    1
     3     2     4    1
     4     2    16    1
     5     2    17    1
     6     3     5    1
     7     3    18    1
     8     3    19    1
     9     4     6    1
    10     4    20    1
    11     4    21    1
    12     5     7    1
    13     5    22    1
    14     5    23    1
    15     6     8    1
    16     6    24    1
    17     6    25    1
    18     7     9    1
    19     7    26    1
    20     7    27    1
    21     8    10    1
    22     8    28    1
    23     8    29    1
    24     9    11    1
    25     9    30    1
    26     9    31    1
    27    10    12    1
    28    10    32    1
    29    10    33    1
    30    11    13    1
    31    11    34    1
    32    11    35    1
    33    12    14    1
    34    12    36    1
    35    12    37    1
    36    13    38    1
    37    13    39    1
    38    13    40    1
    39    14    15    1
    40    15    41    1
    41    15    42    1
    42    15    43    1
