@<TRIPOS>MOLECULE
IMPHY013624
 68 74 0 0 0
SMALL
GASTEIGER

@<TRIPOS>ATOM
      1 O           7.8725   -1.9871    0.0000 O.3     1  UNL1       -0.3406
      2 O           8.5634   -0.5523    0.0000 O.3     1  UNL1       -0.3442
      3 O           6.1234   -2.4250    0.0000 O.3     1  UNL1       -0.3885
      4 O           4.9163    1.3922    0.0000 O.3     1  UNL1       -0.3791
      5 O           8.6331    0.9664    0.0000 O.3     1  UNL1       -0.3910
      6 O           9.0340    1.8502    0.0000 O.3     1  UNL1       -0.3793
      7 N           3.7210   -0.4368    0.0000 N.3     1  UNL1       -0.2956
      8 C           5.6676   -0.0415    0.0000 C.3     1  UNL1        0.0243
      9 C           7.1918   -1.2570    0.0000 C.3     1  UNL1        0.1433
     10 C           4.6656   -0.1476    0.0000 C.3     1  UNL1        0.0533
     11 C           5.6676   -0.9091    0.0000 C.3     1  UNL1        0.0042
     12 C           6.3459    0.4994    0.0000 C.3     1  UNL1       -0.0228
     13 C           7.5682   -0.4753    0.0000 C.3     1  UNL1        0.1128
     14 C           7.1918    0.3063    0.0000 C.3     1  UNL1        0.0210
     15 C           6.3459   -1.4500    0.0000 C.3     1  UNL1        0.0924
     16 C           4.9163   -1.3429    0.0000 C.3     1  UNL1       -0.0133
     17 C           4.9163    0.3922    0.0000 C.3     1  UNL1        0.0661
     18 C           6.2682    1.3635    0.0000 C.3     1  UNL1       -0.0416
     19 C           7.0659    1.7044    0.0000 C.3     1  UNL1        0.0120
     20 C           7.6367    1.0511    0.0000 C.3     1  UNL1        0.0662
     21 C           8.2131   -0.2054    0.0000 C.3     1  UNL1        0.0063
     22 C           3.7210   -1.1887    0.0000 C.3     1  UNL1        0.0050
     23 C           8.2131    1.2791    0.0000 C.3     1  UNL1        0.0662
     24 C           4.1649   -0.9091    0.0000 C.3     1  UNL1       -0.0437
     25 C           4.1649   -0.0415    0.0000 C.3     1  UNL1       -0.0255
     26 C           4.9163   -2.3429    0.0000 C.3     1  UNL1       -0.0580
     27 C           8.7604   -1.5310    0.0000 C.3     1  UNL1        0.1500
     28 C           2.9170    0.1579    0.0000 C.3     1  UNL1       -0.0035
     29 C           2.0000   -0.2410    0.0000 C.3     1  UNL1       -0.0523
     30 C           4.0502    1.8922    0.0000 C.3     1  UNL1        0.0368
     31 C           8.9498    2.8467    0.0000 C.3     1  UNL1        0.0368
     32 H           4.3537    0.6431    0.0000 H       1  UNL1        0.0499
     33 H           5.6041   -1.7567    0.0000 H       1  UNL1        0.0339
     34 H           5.5643    0.8335    0.0000 H       1  UNL1        0.0312
     35 H           8.0409    0.2682    0.0000 H       1  UNL1        0.0358
     36 H           6.7843   -1.8884    0.0000 H       1  UNL1        0.0627
     37 H           5.4532    0.7022    0.0000 H       1  UNL1        0.0602
     38 H           6.0854    1.9559    0.0000 H       1  UNL1        0.0272
     39 H           5.6598    1.2436    0.0000 H       1  UNL1        0.0272
     40 H           7.0452    2.5542    0.0000 H       1  UNL1        0.0351
     41 H           7.9168    1.6042    0.0000 H       1  UNL1        0.0600
     42 H           8.3750   -0.8039    0.0000 H       1  UNL1        0.0319
     43 H           8.8277   -0.1237    0.0000 H       1  UNL1        0.0319
     44 H           3.1015   -1.1622    0.0000 H       1  UNL1        0.0432
     45 H           3.6680   -1.8064    0.0000 H       1  UNL1        0.0432
     46 H           8.1349    1.8942    0.0000 H       1  UNL1        0.0600
     47 H           3.5544   -0.8015    0.0000 H       1  UNL1        0.0272
     48 H           3.9529   -1.4917    0.0000 H       1  UNL1        0.0272
     49 H           3.9529    0.5411    0.0000 H       1  UNL1        0.0290
     50 H           3.5544   -0.1492    0.0000 H       1  UNL1        0.0290
     51 H           4.2963   -2.3429    0.0000 H       1  UNL1        0.0236
     52 H           4.9163   -2.9629    0.0000 H       1  UNL1        0.0236
     53 H           5.5363   -2.3429    0.0000 H       1  UNL1        0.0236
     54 H           8.9919   -2.1061    0.0000 H       1  UNL1        0.0872
     55 H           9.3544   -1.3533    0.0000 H       1  UNL1        0.0872
     56 H           6.5779   -2.8467    0.0000 H       1  UNL1        0.2099
     57 H           3.3666    0.5848    0.0000 H       1  UNL1        0.0424
     58 H           2.5747    0.6749    0.0000 H       1  UNL1        0.0424
     59 H           8.8966    0.4052    0.0000 H       1  UNL1        0.2098
     60 H           1.7527    0.3275    0.0000 H       1  UNL1        0.0242
     61 H           1.4315   -0.4883    0.0000 H       1  UNL1        0.0242
     62 H           2.2473   -0.8095    0.0000 H       1  UNL1        0.0242
     63 H           4.3602    2.4292    0.0000 H       1  UNL1        0.0524
     64 H           3.5133    2.2022    0.0000 H       1  UNL1        0.0524
     65 H           3.7402    1.3553    0.0000 H       1  UNL1        0.0524
     66 H           9.5676    2.8988    0.0000 H       1  UNL1        0.0524
     67 H           8.8976    3.4645    0.0000 H       1  UNL1        0.0524
     68 H           8.3320    2.7945    0.0000 H       1  UNL1        0.0524
@<TRIPOS>BOND
     1     9     1    1
     2     1    27    1
     3    13     2    1
     4     2    27    1
     5    15     3    1
     6     3    56    1
     7    17     4    1
     8     4    30    1
     9    20     5    1
    10     5    59    1
    11    23     6    1
    12     6    31    1
    13     7    10    1
    14     7    22    1
    15     7    28    1
    16     8    10    1
    17     8    11    1
    18     8    12    1
    19     8    17    1
    20     9    10    1
    21     9    13    1
    22     9    15    1
    23    10    32    1
    24    11    15    1
    25    11    16    1
    26    11    33    1
    27    12    14    1
    28    12    18    1
    29    12    34    1
    30    13    14    1
    31    13    21    1
    32    14    20    1
    33    14    35    1
    34    15    36    1
    35    16    22    1
    36    16    24    1
    37    16    26    1
    38    17    25    1
    39    17    37    1
    40    18    19    1
    41    18    38    1
    42    18    39    1
    43    19    20    1
    44    19    23    1
    45    19    40    1
    46    20    41    1
    47    21    23    1
    48    21    42    1
    49    21    43    1
    50    22    44    1
    51    22    45    1
    52    23    46    1
    53    24    25    1
    54    24    47    1
    55    24    48    1
    56    25    49    1
    57    25    50    1
    58    26    51    1
    59    26    52    1
    60    26    53    1
    61    27    54    1
    62    27    55    1
    63    28    29    1
    64    28    57    1
    65    28    58    1
    66    29    60    1
    67    29    61    1
    68    29    62    1
    69    30    63    1
    70    30    64    1
    71    30    65    1
    72    31    66    1
    73    31    67    1
    74    31    68    1
