@<TRIPOS>MOLECULE
IMPHY012984
 89 94 0 0 0
SMALL
GASTEIGER

@<TRIPOS>ATOM
      1 O           7.4149   -3.6379    0.0000 O.3     1  UNL1       -0.4606
      2 O           9.6033    1.9562    0.0000 O.3     1  UNL1       -0.3352
      3 O           7.6034    3.8888    0.0000 O.3     1  UNL1       -0.3627
      4 O          10.4096    0.3670    0.0000 O.3     1  UNL1       -0.4349
      5 O           2.0000   -3.6588    0.0000 O.2     1  UNL1       -0.2921
      6 O           6.5662   -5.1478    0.0000 O.2     1  UNL1       -0.2512
      7 O          11.4301    1.7665    0.0000 O.2     1  UNL1       -0.2511
      8 C           6.5271   -2.1064    0.0000 C.3     1  UNL1        0.0300
      9 C           5.6610   -1.6064    0.0000 C.3     1  UNL1       -0.0194
     10 C           7.3931   -0.6064    0.0000 C.3     1  UNL1       -0.0069
     11 C           4.7510   -2.1133    0.0000 C.3     1  UNL1       -0.0061
     12 C           7.3931   -1.6064    0.0000 C.2     1  UNL1       -0.0576
     13 C           4.7430   -3.1549    0.0000 C.3     1  UNL1       -0.0164
     14 C           8.3393   -0.3017    0.0000 C.3     1  UNL1       -0.0199
     15 C           6.5431   -3.1479    0.0000 C.3     1  UNL1        0.1126
     16 C           5.6610   -0.6064    0.0000 C.3     1  UNL1       -0.0477
     17 C           6.5271   -0.1064    0.0000 C.3     1  UNL1       -0.0433
     18 C           5.6451   -3.6757    0.0000 C.3     1  UNL1       -0.0103
     19 C           8.6500    0.6488    0.0000 C.3     1  UNL1        0.0280
     20 C           8.9229   -1.1064    0.0000 C.3     1  UNL1       -0.0304
     21 C           3.8076   -3.7046    0.0000 C.3     1  UNL1        0.0311
     22 C           8.3393   -1.9112    0.0000 C.2     1  UNL1       -0.0833
     23 C           7.3931   -2.6064    0.0000 C.3     1  UNL1       -0.0521
     24 C           7.3931    0.3936    0.0000 C.3     1  UNL1       -0.0555
     25 C           4.7587   -1.1133    0.0000 C.3     1  UNL1       -0.0555
     26 C           3.8242   -1.5492    0.0000 C.2     1  UNL1       -0.0742
     27 C           8.0636    1.4588    0.0000 C.3     1  UNL1       -0.0151
     28 C           9.6016    0.9562    0.0000 C.3     1  UNL1        0.2081
     29 C           8.6528    2.2668    0.0000 C.3     1  UNL1        0.0919
     30 C           2.8680   -3.1621    0.0000 C.2     1  UNL1        0.1617
     31 C           2.8763   -2.0772    0.0000 C.2     1  UNL1       -0.0221
     32 C           8.3454    3.2184    0.0000 C.3     1  UNL1        0.1140
     33 C           3.3109   -4.5726    0.0000 C.3     1  UNL1       -0.0525
     34 C           4.3109   -4.5687    0.0000 C.3     1  UNL1       -0.0525
     35 C           8.5550    4.1962    0.0000 C.3     1  UNL1        0.0930
     36 C           7.4264   -4.6378    0.0000 C.2     1  UNL1        0.3042
     37 C           8.2476    5.1478    0.0000 C.3     1  UNL1       -0.0335
     38 C           9.5328    3.9866    0.0000 C.3     1  UNL1       -0.0335
     39 C           8.2982   -5.1278    0.0000 C.3     1  UNL1        0.0332
     40 C          11.3238    0.7722    0.0000 C.2     1  UNL1        0.3061
     41 C          12.1318    0.1830    0.0000 C.3     1  UNL1        0.0333
     42 H           6.3972   -1.1814    0.0000 H       1  UNL1        0.0319
     43 H           4.7463   -4.0049    0.0000 H       1  UNL1        0.0320
     44 H           9.1790   -0.1698    0.0000 H       1  UNL1        0.0317
     45 H           6.5491   -3.7679    0.0000 H       1  UNL1        0.0743
     46 H           5.4490   -0.0238    0.0000 H       1  UNL1        0.0269
     47 H           5.0504   -0.7141    0.0000 H       1  UNL1        0.0269
     48 H           6.9256    0.3685    0.0000 H       1  UNL1        0.0274
     49 H           6.1285    0.3685    0.0000 H       1  UNL1        0.0274
     50 H           5.2478   -4.1517    0.0000 H       1  UNL1        0.0304
     51 H           6.0460   -4.1486    0.0000 H       1  UNL1        0.0304
     52 H           7.8102    0.5173    0.0000 H       1  UNL1        0.0365
     53 H           9.3838   -1.5212    0.0000 H       1  UNL1        0.0310
     54 H           9.3838   -0.6917    0.0000 H       1  UNL1        0.0310
     55 H           8.5319   -2.5005    0.0000 H       1  UNL1        0.0572
     56 H           7.0831   -3.1434    0.0000 H       1  UNL1        0.0239
     57 H           7.9300   -2.9164    0.0000 H       1  UNL1        0.0239
     58 H           7.7031   -2.0695    0.0000 H       1  UNL1        0.0239
     59 H           8.0131    0.3936    0.0000 H       1  UNL1        0.0238
     60 H           7.3931    1.0136    0.0000 H       1  UNL1        0.0238
     61 H           6.7731    0.3936    0.0000 H       1  UNL1        0.0238
     62 H           5.3787   -1.1181    0.0000 H       1  UNL1        0.0238
     63 H           4.7635   -0.4933    0.0000 H       1  UNL1        0.0238
     64 H           4.1388   -1.1085    0.0000 H       1  UNL1        0.0238
     65 H           3.8361   -0.9293    0.0000 H       1  UNL1        0.0579
     66 H           7.6036    1.8745    0.0000 H       1  UNL1        0.0296
     67 H           7.6021    1.0448    0.0000 H       1  UNL1        0.0296
     68 H           9.5035    0.3440    0.0000 H       1  UNL1        0.1060
     69 H           9.2548    2.8668    0.0000 H       1  UNL1        0.0624
     70 H           2.3430   -1.7610    0.0000 H       1  UNL1        0.0649
     71 H           7.6317    2.7567    0.0000 H       1  UNL1        0.0651
     72 H           2.7728   -4.2646    0.0000 H       1  UNL1        0.0239
     73 H           3.0030   -5.1107    0.0000 H       1  UNL1        0.0239
     74 H           3.8490   -4.8805    0.0000 H       1  UNL1        0.0239
     75 H           3.7752   -4.8808    0.0000 H       1  UNL1        0.0239
     76 H           4.6230   -5.1044    0.0000 H       1  UNL1        0.0239
     77 H           4.8466   -4.2566    0.0000 H       1  UNL1        0.0239
     78 H           8.8376    5.3384    0.0000 H       1  UNL1        0.0258
     79 H           8.0571    5.7378    0.0000 H       1  UNL1        0.0258
     80 H           7.6576    4.9572    0.0000 H       1  UNL1        0.0258
     81 H           9.4028    3.3804    0.0000 H       1  UNL1        0.0258
     82 H          10.1390    3.8567    0.0000 H       1  UNL1        0.0258
     83 H           9.6627    4.5928    0.0000 H       1  UNL1        0.0258
     84 H           7.9944   -5.6683    0.0000 H       1  UNL1        0.0342
     85 H           8.8387   -5.4316    0.0000 H       1  UNL1        0.0342
     86 H           8.6020   -4.5873    0.0000 H       1  UNL1        0.0342
     87 H          11.7665   -0.3180    0.0000 H       1  UNL1        0.0342
     88 H          12.6328   -0.1823    0.0000 H       1  UNL1        0.0342
     89 H          12.4971    0.6839    0.0000 H       1  UNL1        0.0342
@<TRIPOS>BOND
     1    15     1    1
     2     1    36    1
     3     2    28    1
     4     2    29    1
     5     3    32    1
     6     3    35    1
     7    28     4    1
     8     4    40    1
     9     5    30    2
    10     6    36    2
    11     7    40    2
    12     8     9    1
    13     8    12    1
    14     8    15    1
    15     8    23    1
    16     9    11    1
    17     9    16    1
    18     9    42    1
    19    10    12    1
    20    10    14    1
    21    10    17    1
    22    10    24    1
    23    11    13    1
    24    11    25    1
    25    11    26    1
    26    12    22    2
    27    13    18    1
    28    13    21    1
    29    13    43    1
    30    14    19    1
    31    14    20    1
    32    14    44    1
    33    15    18    1
    34    15    45    1
    35    16    17    1
    36    16    46    1
    37    16    47    1
    38    17    48    1
    39    17    49    1
    40    18    50    1
    41    18    51    1
    42    19    27    1
    43    19    28    1
    44    19    52    1
    45    20    22    1
    46    20    53    1
    47    20    54    1
    48    21    30    1
    49    21    33    1
    50    21    34    1
    51    22    55    1
    52    23    56    1
    53    23    57    1
    54    23    58    1
    55    24    59    1
    56    24    60    1
    57    24    61    1
    58    25    62    1
    59    25    63    1
    60    25    64    1
    61    26    31    2
    62    26    65    1
    63    27    29    1
    64    27    66    1
    65    27    67    1
    66    28    68    1
    67    29    32    1
    68    29    69    1
    69    30    31    1
    70    31    70    1
    71    32    35    1
    72    32    71    1
    73    33    72    1
    74    33    73    1
    75    33    74    1
    76    34    75    1
    77    34    76    1
    78    34    77    1
    79    35    37    1
    80    35    38    1
    81    36    39    1
    82    37    78    1
    83    37    79    1
    84    37    80    1
    85    38    81    1
    86    38    82    1
    87    38    83    1
    88    39    84    1
    89    39    85    1
    90    39    86    1
    91    40    41    1
    92    41    87    1
    93    41    88    1
    94    41    89    1
