@<TRIPOS>MOLECULE
IMPHY001358
 80 85 0 0 0
SMALL
GASTEIGER

@<TRIPOS>ATOM
      1 O           7.5330    1.8066    0.0000 O.3     1  UNL1       -0.4526
      2 O           8.3556    3.4057    0.0000 O.2     1  UNL1       -0.2502
      3 O           2.1233   -2.0294    0.0000 O.3     1  UNL1       -0.3887
      4 O           3.9738   -3.0978    0.0000 O.3     1  UNL1       -0.3892
      5 C           6.7804    1.7030    0.0000 C.3     1  UNL1        0.0177
      6 C           5.8704    1.1962    0.0000 C.3     1  UNL1       -0.0160
      7 C           7.6464    1.2030    0.0000 C.3     1  UNL1        0.1415
      8 C           8.5124    1.7030    0.0000 C.3     1  UNL1        0.0217
      9 C           5.8623    0.1546    0.0000 C.3     1  UNL1       -0.0110
     10 C           8.5124    2.7030    0.0000 C.3     1  UNL1        0.0748
     11 C           4.9269   -0.3952    0.0000 C.3     1  UNL1       -0.0195
     12 C           6.7804    2.7030    0.0000 C.3     1  UNL1       -0.0421
     13 C           3.9873    0.1473    0.0000 C.3     1  UNL1       -0.0274
     14 C           4.9435    1.7602    0.0000 C.3     1  UNL1       -0.0461
     15 C           7.6464    3.2030    0.0000 C.3     1  UNL1       -0.0362
     16 C           9.4064    1.1684    0.0000 C.3     1  UNL1       -0.0335
     17 C           3.9956    1.2323    0.0000 C.3     1  UNL1       -0.0486
     18 C           7.6624    0.1615    0.0000 C.2     1  UNL1       -0.0437
     19 C           9.4064    3.2377    0.0000 C.3     1  UNL1       -0.0366
     20 C           2.9999   -0.4026    0.0000 C.3     1  UNL1       -0.0032
     21 C           6.7644   -0.3663    0.0000 C.2     1  UNL1       -0.0800
     22 C           6.1376    2.4691    0.0000 C.3     1  UNL1       -0.0551
     23 C           4.9443   -1.5252    0.0000 C.3     1  UNL1       -0.0182
     24 C           5.5356    2.1385    0.0000 C.3     1  UNL1       -0.0584
     25 C           7.9330    2.4994    0.0000 C.2     1  UNL1        0.3146
     26 C          10.3124    1.6822    0.0000 C.3     1  UNL1       -0.0408
     27 C          10.3124    2.7238    0.0000 C.3     1  UNL1       -0.0492
     28 C           5.7929   -0.8952    0.0000 C.3     1  UNL1       -0.0587
     29 C           2.9912   -1.5327    0.0000 C.3     1  UNL1        0.0864
     30 C           3.9700   -2.0978    0.0000 C.3     1  UNL1        0.0821
     31 C           9.3948    0.1684    0.0000 C.3     1  UNL1       -0.0618
     32 C           2.0000   -0.3910    0.0000 C.3     1  UNL1       -0.0571
     33 C           2.5100    0.4692    0.0000 C.3     1  UNL1       -0.0571
     34 C          11.1765    1.1789    0.0000 C.3     1  UNL1       -0.0622
     35 H           8.5124    0.8530    0.0000 H       1  UNL1        0.0356
     36 H           5.8656   -0.6954    0.0000 H       1  UNL1        0.0354
     37 H           6.5683    3.2856    0.0000 H       1  UNL1        0.0272
     38 H           6.1698    2.5953    0.0000 H       1  UNL1        0.0272
     39 H           3.2561    0.5808    0.0000 H       1  UNL1        0.0312
     40 H           5.3517    2.2269    0.0000 H       1  UNL1        0.0271
     41 H           4.5536    2.2423    0.0000 H       1  UNL1        0.0271
     42 H           8.0449    3.6780    0.0000 H       1  UNL1        0.0276
     43 H           7.2479    3.6780    0.0000 H       1  UNL1        0.0276
     44 H           9.9403    0.8532    0.0000 H       1  UNL1        0.0305
     45 H           3.7911    1.8176    0.0000 H       1  UNL1        0.0268
     46 H           3.3840    1.1309    0.0000 H       1  UNL1        0.0268
     47 H           8.2029   -0.1423    0.0000 H       1  UNL1        0.0609
     48 H           9.8000    3.7167    0.0000 H       1  UNL1        0.0276
     49 H           9.0018    3.7075    0.0000 H       1  UNL1        0.0276
     50 H           6.7668   -0.9862    0.0000 H       1  UNL1        0.0573
     51 H           6.6125    2.8676    0.0000 H       1  UNL1        0.0237
     52 H           5.7390    2.9440    0.0000 H       1  UNL1        0.0237
     53 H           5.6626    2.0705    0.0000 H       1  UNL1        0.0237
     54 H           5.1624   -2.1056    0.0000 H       1  UNL1        0.0296
     55 H           5.5535   -1.4097    0.0000 H       1  UNL1        0.0296
     56 H           6.1198    2.3460    0.0000 H       1  UNL1        0.0235
     57 H           5.3280    2.7227    0.0000 H       1  UNL1        0.0235
     58 H           4.9514    1.9309    0.0000 H       1  UNL1        0.0235
     59 H          10.3088    1.0622    0.0000 H       1  UNL1        0.0301
     60 H          10.9233    2.6177    0.0000 H       1  UNL1        0.0268
     61 H          10.5215    3.3075    0.0000 H       1  UNL1        0.0268
     62 H           5.4829   -1.4321    0.0000 H       1  UNL1        0.0235
     63 H           6.3299   -1.2052    0.0000 H       1  UNL1        0.0235
     64 H           6.1029   -0.3582    0.0000 H       1  UNL1        0.0235
     65 H           2.9900   -2.1527    0.0000 H       1  UNL1        0.0624
     66 H           4.5087   -2.4047    0.0000 H       1  UNL1        0.0619
     67 H           8.7748    0.1756    0.0000 H       1  UNL1        0.0233
     68 H           9.3876   -0.4515    0.0000 H       1  UNL1        0.0233
     69 H          10.0148    0.1612    0.0000 H       1  UNL1        0.0233
     70 H           3.0505    0.7729    0.0000 H       1  UNL1        0.0236
     71 H           2.2062    1.0096    0.0000 H       1  UNL1        0.0236
     72 H           1.9695    0.1654    0.0000 H       1  UNL1        0.0236
     73 H           2.0072    0.2289    0.0000 H       1  UNL1        0.0236
     74 H           1.3800   -0.3839    0.0000 H       1  UNL1        0.0236
     75 H           1.9928   -1.0110    0.0000 H       1  UNL1        0.0236
     76 H          10.8645    0.6431    0.0000 H       1  UNL1        0.0233
     77 H          11.7123    0.8668    0.0000 H       1  UNL1        0.0233
     78 H          11.4886    1.7146    0.0000 H       1  UNL1        0.0233
     79 H           2.1209   -2.6494    0.0000 H       1  UNL1        0.2099
     80 H           4.5120   -3.4057    0.0000 H       1  UNL1        0.2099
@<TRIPOS>BOND
     1     1     7    1
     2     1    25    1
     3     2    25    2
     4    29     3    1
     5     3    79    1
     6    30     4    1
     7     4    80    1
     8     5     6    1
     9     5     7    1
    10     5    12    1
    11     5    22    1
    12     6     9    1
    13     6    14    1
    14     6    24    1
    15     7     8    1
    16     7    18    1
    17     8    10    1
    18     8    16    1
    19     8    35    1
    20     9    11    1
    21     9    21    1
    22     9    36    1
    23    10    15    1
    24    10    19    1
    25    10    25    1
    26    11    13    1
    27    11    23    1
    28    11    28    1
    29    12    15    1
    30    12    37    1
    31    12    38    1
    32    13    17    1
    33    13    20    1
    34    13    39    1
    35    14    17    1
    36    14    40    1
    37    14    41    1
    38    15    42    1
    39    15    43    1
    40    16    26    1
    41    16    31    1
    42    16    44    1
    43    17    45    1
    44    17    46    1
    45    18    21    2
    46    18    47    1
    47    19    27    1
    48    19    48    1
    49    19    49    1
    50    20    29    1
    51    20    32    1
    52    20    33    1
    53    21    50    1
    54    22    51    1
    55    22    52    1
    56    22    53    1
    57    23    30    1
    58    23    54    1
    59    23    55    1
    60    24    56    1
    61    24    57    1
    62    24    58    1
    63    26    27    1
    64    26    34    1
    65    26    59    1
    66    27    60    1
    67    27    61    1
    68    28    62    1
    69    28    63    1
    70    28    64    1
    71    29    30    1
    72    29    65    1
    73    30    66    1
    74    31    67    1
    75    31    68    1
    76    31    69    1
    77    32    73    1
    78    32    74    1
    79    32    75    1
    80    33    70    1
    81    33    71    1
    82    33    72    1
    83    34    76    1
    84    34    77    1
    85    34    78    1
