@<TRIPOS>MOLECULE
IMPHY001419
 35 38 0 0 0
SMALL
GASTEIGER

@<TRIPOS>ATOM
      1 O        2482.4800 2419.9000    0.0000 O.3     1  UNL1       -0.2104
      2 C        2447.8400 2439.9500    0.0000 C.3     1  UNL1        0.2568
      3 C        2447.8400 2480.2500    0.0000 C.3     1  UNL1        0.2260
      4 O        2413.3000 2500.4000    0.0000 O.3     1  UNL1       -0.4713
      5 C        2378.7600 2480.2500    0.0000 C.ar    1  UNL1        0.1480
      6 C        2378.7600 2439.9500    0.0000 C.ar    1  UNL1        0.1100
      7 C        2413.3000 2419.8000    0.0000 C.2     1  UNL1        0.2132
      8 O        2413.3000 2379.8000    0.0000 O.2     1  UNL1       -0.2883
      9 C        2344.2200 2419.8000    0.0000 C.ar    1  UNL1        0.2005
     10 O        2344.2200 2379.8000    0.0000 O.3     1  UNL1       -0.2866
     11 C        2309.6800 2439.9500    0.0000 C.ar    1  UNL1        0.0562
     12 C        2309.6800 2480.2500    0.0000 C.ar    1  UNL1        0.1978
     13 C        2344.2200 2500.4000    0.0000 C.ar    1  UNL1        0.0789
     14 O        2274.9400 2500.2000    0.0000 O.3     1  UNL1       -0.2867
     15 C        2274.9400 2419.9000    0.0000 C.3     1  UNL1        0.0378
     16 C        2482.4800 2500.2000    0.0000 C.ar    1  UNL1        0.0266
     17 C        2517.1200 2480.2500    0.0000 C.ar    1  UNL1        0.0398
     18 C        2551.7600 2500.2000    0.0000 C.ar    1  UNL1        0.1831
     19 O        2586.4000 2480.2500    0.0000 O.3     1  UNL1       -0.4471
     20 C        2621.0400 2500.2000    0.0000 C.3     1  UNL1        0.3219
     21 O        2621.0400 2540.2000    0.0000 O.3     1  UNL1       -0.3157
     22 C        2655.6800 2560.2500    0.0000 C.3     1  UNL1        0.1846
     23 C        2655.6800 2600.2500    0.0000 C.3     1  UNL1        0.2142
     24 O        2690.3200 2620.2000    0.0000 O.3     1  UNL1       -0.2176
     25 C        2690.3200 2540.2000    0.0000 C.3     1  UNL1        0.2145
     26 C        2690.3200 2500.2000    0.0000 C.3     1  UNL1        0.2211
     27 C        2655.6800 2480.2500    0.0000 C.3     1  UNL1        0.2542
     28 O        2655.6800 2440.2500    0.0000 O.3     1  UNL1       -0.2135
     29 O        2725.0600 2480.2500    0.0000 O.3     1  UNL1       -0.2173
     30 O        2725.0600 2560.2500    0.0000 O.3     1  UNL1       -0.2176
     31 C        2551.7600 2540.2000    0.0000 C.ar    1  UNL1        0.2678
     32 C        2517.1200 2560.2500    0.0000 C.ar    1  UNL1        0.2371
     33 C        2482.4800 2540.2000    0.0000 C.ar    1  UNL1        0.0449
     34 O        2517.1200 2600.2500    0.0000 O.3     1  UNL1       -0.2830
     35 O        2586.4000 2560.2500    0.0000 O.3     1  UNL1       -0.2799
@<TRIPOS>BOND
     1     1     2    1
     2     2     3    1
     3     2     7    1
     4     3     4    1
     5     3    16    1
     6     4     5    1
     7     5    13   ar
     8     6     5   ar
     9     6     9   ar
    10     7     6    1
    11     7     8    2
    12     9    10    1
    13     9    11   ar
    14    11    12   ar
    15    11    15    1
    16    12    14    1
    17    13    12   ar
    18    16    17   ar
    19    16    33   ar
    20    17    18   ar
    21    18    19    1
    22    18    31   ar
    23    19    20    1
    24    20    21    1
    25    20    27    1
    26    21    22    1
    27    22    23    1
    28    22    25    1
    29    23    24    1
    30    25    30    1
    31    26    25    1
    32    26    29    1
    33    27    26    1
    34    27    28    1
    35    31    35    1
    36    32    31   ar
    37    32    34    1
    38    33    32   ar
