@<TRIPOS>MOLECULE
IMPHY003506
 39 41 0 0 0
SMALL
GASTEIGER

@<TRIPOS>ATOM
      1 O           6.3981   -0.2704    0.0000 O.3     1  UNL1       -0.4828
      2 O           6.3981    2.7296    0.0000 O.2     1  UNL1       -0.2917
      3 O           4.6497    2.7642    0.0000 O.3     1  UNL1       -0.5058
      4 O           2.8680   -0.2945    0.0000 O.3     1  UNL1       -0.4949
      5 O          10.7282   -1.7704    0.0000 O.3     1  UNL1       -0.4915
      6 O           8.9962   -2.7704    0.0000 O.3     1  UNL1       -0.5033
      7 C           7.2641    0.2296    0.0000 C.3     1  UNL1        0.1323
      8 C           7.2641    1.2296    0.0000 C.3     1  UNL1        0.0520
      9 C           8.1301   -0.2704    0.0000 C.ar    1  UNL1       -0.0033
     10 C           5.5320    1.2296    0.0000 C.ar    1  UNL1        0.1007
     11 C           6.3981    1.7296    0.0000 C.2     1  UNL1        0.1740
     12 C           5.5320    0.2296    0.0000 C.ar    1  UNL1        0.1389
     13 C           4.6381    1.7643    0.0000 C.ar    1  UNL1        0.1343
     14 C           8.1301   -1.2704    0.0000 C.ar    1  UNL1       -0.0098
     15 C           8.9962    0.2296    0.0000 C.ar    1  UNL1       -0.0514
     16 C           4.6381   -0.3051    0.0000 C.ar    1  UNL1        0.0227
     17 C           3.7320    0.2088    0.0000 C.ar    1  UNL1        0.1271
     18 C           3.7320    1.2504    0.0000 C.ar    1  UNL1        0.0225
     19 C           8.9962   -1.7704    0.0000 C.ar    1  UNL1        0.1588
     20 C           9.8622   -0.2704    0.0000 C.ar    1  UNL1       -0.0159
     21 C           9.8622   -1.2704    0.0000 C.ar    1  UNL1        0.1613
     22 C           2.0000    0.2021    0.0000 C.3     1  UNL1        0.0788
     23 C          11.5942   -1.2704    0.0000 C.3     1  UNL1        0.0790
     24 H           7.2641   -0.3904    0.0000 H       1  UNL1        0.0789
     25 H           7.8747    1.1220    0.0000 H       1  UNL1        0.0385
     26 H           7.4762    1.8122    0.0000 H       1  UNL1        0.0385
     27 H           7.5932   -1.5804    0.0000 H       1  UNL1        0.0659
     28 H           8.9962    0.8496    0.0000 H       1  UNL1        0.0623
     29 H           4.6453   -0.9250    0.0000 H       1  UNL1        0.0691
     30 H           3.1963    1.5625    0.0000 H       1  UNL1        0.0691
     31 H          10.3991    0.0396    0.0000 H       1  UNL1        0.0655
     32 H           4.1164    3.0804    0.0000 H       1  UNL1        0.2922
     33 H           8.4592   -3.0804    0.0000 H       1  UNL1        0.2923
     34 H           2.3079    0.7402    0.0000 H       1  UNL1        0.0660
     35 H           1.4619    0.5100    0.0000 H       1  UNL1        0.0660
     36 H           1.6921   -0.3360    0.0000 H       1  UNL1        0.0660
     37 H          11.9042   -1.8073    0.0000 H       1  UNL1        0.0660
     38 H          12.1312   -0.9604    0.0000 H       1  UNL1        0.0660
     39 H          11.2842   -0.7335    0.0000 H       1  UNL1        0.0660
@<TRIPOS>BOND
     1     1     7    1
     2     1    12    1
     3     2    11    2
     4     3    13    1
     5     3    32    1
     6     4    17    1
     7     4    22    1
     8     5    21    1
     9     5    23    1
    10     6    19    1
    11     6    33    1
    12     7     8    1
    13     7     9    1
    14     7    24    1
    15     8    11    1
    16     8    25    1
    17     8    26    1
    18     9    14   ar
    19     9    15   ar
    20    10    11    1
    21    10    12   ar
    22    10    13   ar
    23    12    16   ar
    24    13    18   ar
    25    14    19   ar
    26    14    27    1
    27    15    20   ar
    28    15    28    1
    29    16    17   ar
    30    16    29    1
    31    17    18   ar
    32    18    30    1
    33    19    21   ar
    34    20    21   ar
    35    20    31    1
    36    22    34    1
    37    22    35    1
    38    22    36    1
    39    23    37    1
    40    23    38    1
    41    23    39    1
