@<TRIPOS>MOLECULE
IMPHY016846
 39 40 0 0 0
SMALL
GASTEIGER

@<TRIPOS>ATOM
      1 C           5.4641   -0.7673    0.0000 C.3     1  UNL1        0.0072
      2 C           3.7320    0.2327    0.0000 C.3     1  UNL1       -0.0350
      3 C           4.5981   -1.2673    0.0000 C.3     1  UNL1       -0.0402
      4 C           3.7320   -0.7673    0.0000 C.3     1  UNL1       -0.0486
      5 C           5.4641    0.2327    0.0000 C.2     1  UNL1       -0.0604
      6 C           4.5981    0.7327    0.0000 C.3     1  UNL1       -0.0276
      7 C           2.8660    0.7327    0.0000 C.3     1  UNL1       -0.0436
      8 C           6.3580    0.7674    0.0000 C.2     1  UNL1       -0.0688
      9 C           6.3580   -1.3020    0.0000 C.2     1  UNL1       -0.0777
     10 C           5.4641   -1.7673    0.0000 C.3     1  UNL1       -0.0523
     11 C           7.2641    0.2535    0.0000 C.3     1  UNL1       -0.0135
     12 C           7.2641   -0.7881    0.0000 C.2     1  UNL1       -0.0831
     13 C           2.0000    0.2327    0.0000 C.3     1  UNL1       -0.0624
     14 C           2.8660    1.7327    0.0000 C.3     1  UNL1       -0.0624
     15 C           6.3465    1.7673    0.0000 C.3     1  UNL1       -0.0432
     16 H           3.7320    0.8527    0.0000 H       1  UNL1        0.0306
     17 H           4.1996   -1.7422    0.0000 H       1  UNL1        0.0277
     18 H           4.9966   -1.7422    0.0000 H       1  UNL1        0.0277
     19 H           3.1215   -0.6596    0.0000 H       1  UNL1        0.0268
     20 H           3.5200   -1.3499    0.0000 H       1  UNL1        0.0268
     21 H           4.9966    1.2076    0.0000 H       1  UNL1        0.0313
     22 H           4.1996    1.2076    0.0000 H       1  UNL1        0.0313
     23 H           2.8660    0.1127    0.0000 H       1  UNL1        0.0298
     24 H           6.3509   -1.9219    0.0000 H       1  UNL1        0.0578
     25 H           4.8441   -1.7673    0.0000 H       1  UNL1        0.0241
     26 H           5.4641   -2.3873    0.0000 H       1  UNL1        0.0241
     27 H           6.0841   -1.7673    0.0000 H       1  UNL1        0.0241
     28 H           7.8750    0.1474    0.0000 H       1  UNL1        0.0352
     29 H           7.4732    0.8372    0.0000 H       1  UNL1        0.0352
     30 H           7.7998   -1.1002    0.0000 H       1  UNL1        0.0572
     31 H           1.6900    0.7696    0.0000 H       1  UNL1        0.0232
     32 H           1.4631   -0.0773    0.0000 H       1  UNL1        0.0232
     33 H           2.3100   -0.3042    0.0000 H       1  UNL1        0.0232
     34 H           3.4860    1.7327    0.0000 H       1  UNL1        0.0232
     35 H           2.8660    2.3527    0.0000 H       1  UNL1        0.0232
     36 H           2.2460    1.7327    0.0000 H       1  UNL1        0.0232
     37 H           6.9664    1.7745    0.0000 H       1  UNL1        0.0275
     38 H           6.3393    2.3873    0.0000 H       1  UNL1        0.0275
     39 H           5.7265    1.7601    0.0000 H       1  UNL1        0.0275
@<TRIPOS>BOND
     1     1     3    1
     2     1     5    1
     3     1     9    1
     4     1    10    1
     5     2     4    1
     6     2     6    1
     7     2     7    1
     8     2    16    1
     9     3     4    1
    10     3    17    1
    11     3    18    1
    12     4    19    1
    13     4    20    1
    14     5     6    1
    15     5     8    2
    16     6    21    1
    17     6    22    1
    18     7    13    1
    19     7    14    1
    20     7    23    1
    21     8    11    1
    22     8    15    1
    23     9    12    2
    24     9    24    1
    25    10    25    1
    26    10    26    1
    27    10    27    1
    28    11    12    1
    29    11    28    1
    30    11    29    1
    31    12    30    1
    32    13    31    1
    33    13    32    1
    34    13    33    1
    35    14    34    1
    36    14    35    1
    37    14    36    1
    38    15    37    1
    39    15    38    1
    40    15    39    1
