@<TRIPOS>MOLECULE
IMPHY016851
 38 39 0 0 0
SMALL
GASTEIGER

@<TRIPOS>ATOM
      1 O           7.2067    2.0223    0.0000 O.2     1  UNL1       -0.2960
      2 C           5.4641   -1.0223    0.0000 C.3     1  UNL1       -0.0104
      3 C           4.5981   -1.5223    0.0000 C.3     1  UNL1       -0.0434
      4 C           5.4641   -0.0223    0.0000 C.2     1  UNL1       -0.0569
      5 C           6.3580   -1.5570    0.0000 C.3     1  UNL1       -0.0436
      6 C           3.7320   -0.0223    0.0000 C.3     1  UNL1       -0.0167
      7 C           3.7320   -1.0223    0.0000 C.3     1  UNL1       -0.0455
      8 C           4.5981    0.4777    0.0000 C.3     1  UNL1       -0.0241
      9 C           7.2641   -1.0431    0.0000 C.3     1  UNL1       -0.0482
     10 C           5.4641   -2.0223    0.0000 C.3     1  UNL1       -0.0558
     11 C           6.3580    0.5124    0.0000 C.2     1  UNL1       -0.0084
     12 C           7.2641   -0.0015    0.0000 C.3     1  UNL1       -0.0247
     13 C           2.8660    0.4777    0.0000 C.2     1  UNL1       -0.0763
     14 C           6.3465    1.5123    0.0000 C.2     1  UNL1        0.1462
     15 C           2.0000   -0.0223    0.0000 C.3     1  UNL1       -0.0438
     16 C           2.8660    1.4777    0.0000 C.2     1  UNL1       -0.0994
     17 H           4.1996   -1.9972    0.0000 H       1  UNL1        0.0274
     18 H           4.9966   -1.9972    0.0000 H       1  UNL1        0.0274
     19 H           5.9534   -2.0267    0.0000 H       1  UNL1        0.0274
     20 H           6.7517   -2.0360    0.0000 H       1  UNL1        0.0274
     21 H           3.7320    0.5977    0.0000 H       1  UNL1        0.0348
     22 H           3.1215   -0.9146    0.0000 H       1  UNL1        0.0271
     23 H           3.5200   -1.6049    0.0000 H       1  UNL1        0.0271
     24 H           4.9966    0.9527    0.0000 H       1  UNL1        0.0316
     25 H           4.1996    0.9527    0.0000 H       1  UNL1        0.0316
     26 H           7.4732   -1.6268    0.0000 H       1  UNL1        0.0269
     27 H           7.8750   -0.9370    0.0000 H       1  UNL1        0.0269
     28 H           4.8441   -2.0223    0.0000 H       1  UNL1        0.0238
     29 H           5.4641   -2.6423    0.0000 H       1  UNL1        0.0238
     30 H           6.0841   -2.0223    0.0000 H       1  UNL1        0.0238
     31 H           7.8750   -0.1076    0.0000 H       1  UNL1        0.0314
     32 H           7.4732    0.5822    0.0000 H       1  UNL1        0.0314
     33 H           5.8060    1.8161    0.0000 H       1  UNL1        0.1078
     34 H           1.6900    0.5146    0.0000 H       1  UNL1        0.0274
     35 H           1.4631   -0.3323    0.0000 H       1  UNL1        0.0274
     36 H           2.3100   -0.5592    0.0000 H       1  UNL1        0.0274
     37 H           3.4030    1.7877    0.0000 H       1  UNL1        0.0534
     38 H           2.3291    1.7877    0.0000 H       1  UNL1        0.0534
@<TRIPOS>BOND
     1     1    14    2
     2     2     3    1
     3     2     4    1
     4     2     5    1
     5     2    10    1
     6     3     7    1
     7     3    17    1
     8     3    18    1
     9     4     8    1
    10     4    11    2
    11     5     9    1
    12     5    19    1
    13     5    20    1
    14     6     7    1
    15     6     8    1
    16     6    13    1
    17     6    21    1
    18     7    22    1
    19     7    23    1
    20     8    24    1
    21     8    25    1
    22     9    12    1
    23     9    26    1
    24     9    27    1
    25    10    28    1
    26    10    29    1
    27    10    30    1
    28    11    12    1
    29    11    14    1
    30    12    31    1
    31    12    32    1
    32    13    15    1
    33    13    16    2
    34    14    33    1
    35    15    34    1
    36    15    35    1
    37    15    36    1
    38    16    37    1
    39    16    38    1
