@<TRIPOS>MOLECULE
IMPHY006140
 35 37 0 0 0
SMALL
GASTEIGER

@<TRIPOS>ATOM
      1 O           5.5301   -2.0829    0.0000 O.2     1  UNL1       -0.4618
      2 O           5.5301    0.9171    0.0000 O.2     1  UNL1       -0.2863
      3 O           9.8602    1.4171    0.0000 O.3     1  UNL1       -0.4885
      4 O           3.7817    0.9517    0.0000 O.3     1  UNL1       -0.5058
      5 O           8.1282    2.4171    0.0000 O.3     1  UNL1       -0.5032
      6 O           9.8602   -0.5829    0.0000 O.3     1  UNL1       -0.5032
      7 O           2.0000   -2.1071    0.0000 O.3     1  UNL1       -0.5065
      8 C           6.3961   -0.5829    0.0000 C.ar    1  UNL1        0.0646
      9 C           4.6641   -0.5829    0.0000 C.ar    1  UNL1        0.1060
     10 C           7.2622   -0.0829    0.0000 C.ar    1  UNL1       -0.0041
     11 C           5.5301   -0.0829    0.0000 C.ar    1  UNL1        0.2037
     12 C           4.6641   -1.5829    0.0000 C.ar    1  UNL1        0.1454
     13 C           3.7702   -0.0483    0.0000 C.ar    1  UNL1        0.1347
     14 C           6.3961   -1.5829    0.0000 C.ar    1  UNL1        0.1038
     15 C           8.1282   -0.5829    0.0000 C.ar    1  UNL1       -0.0084
     16 C           7.2622    0.9171    0.0000 C.ar    1  UNL1       -0.0084
     17 C           3.7702   -2.1176    0.0000 C.ar    1  UNL1        0.0231
     18 C           8.1282    1.4171    0.0000 C.ar    1  UNL1        0.1627
     19 C           8.9942   -0.0829    0.0000 C.ar    1  UNL1        0.1627
     20 C           8.9942    0.9171    0.0000 C.ar    1  UNL1        0.2031
     21 C           2.8641   -0.5621    0.0000 C.ar    1  UNL1        0.0223
     22 C           2.8641   -1.6037    0.0000 C.ar    1  UNL1        0.1239
     23 C          10.7263    0.9171    0.0000 C.3     1  UNL1        0.0791
     24 H           6.9331   -1.8929    0.0000 H       1  UNL1        0.1037
     25 H           8.1282   -1.2029    0.0000 H       1  UNL1        0.0661
     26 H           6.7252    1.2271    0.0000 H       1  UNL1        0.0661
     27 H           3.7773   -2.7376    0.0000 H       1  UNL1        0.0691
     28 H           2.3284   -0.2500    0.0000 H       1  UNL1        0.0691
     29 H           3.2484    1.2679    0.0000 H       1  UNL1        0.2922
     30 H           8.6651    2.7271    0.0000 H       1  UNL1        0.2923
     31 H           9.8602   -1.2029    0.0000 H       1  UNL1        0.2923
     32 H           2.0024   -2.7271    0.0000 H       1  UNL1        0.2921
     33 H          10.4163    0.3801    0.0000 H       1  UNL1        0.0660
     34 H          11.2632    0.6071    0.0000 H       1  UNL1        0.0660
     35 H          11.0363    1.4540    0.0000 H       1  UNL1        0.0660
@<TRIPOS>BOND
     1     1    12   ar
     2     1    14   ar
     3     2    11    2
     4     3    20    1
     5     3    23    1
     6     4    13    1
     7     4    29    1
     8     5    18    1
     9     5    30    1
    10     6    19    1
    11     6    31    1
    12     7    22    1
    13     7    32    1
    14     8    10    1
    15     8    11   ar
    16     8    14   ar
    17     9    11   ar
    18     9    12   ar
    19     9    13   ar
    20    10    15   ar
    21    10    16   ar
    22    12    17   ar
    23    13    21   ar
    24    14    24    1
    25    15    19   ar
    26    15    25    1
    27    16    18   ar
    28    16    26    1
    29    17    22   ar
    30    17    27    1
    31    18    20   ar
    32    19    20   ar
    33    21    22   ar
    34    21    28    1
    35    23    33    1
    36    23    34    1
    37    23    35    1
