@<TRIPOS>MOLECULE
IMPHY009217
 122 134 0 0 0
SMALL
GASTEIGER

@<TRIPOS>ATOM
      1 O           4.4300   -1.7187    0.0000 O.3     1  UNL1       -0.4753
      2 O           6.8954   -1.4663    0.0000 O.3     1  UNL1       -0.4562
      3 O           7.6999   -1.6245    0.0000 O.3     1  UNL1       -0.4502
      4 O           6.0196    1.2213    0.0000 O.3     1  UNL1       -0.4808
      5 O           3.8078   -2.5763    0.0000 O.2     1  UNL1       -0.2844
      6 O           4.7461   -4.4166    0.0000 O.2     1  UNL1       -0.5031
      7 O           7.1774   -3.0640    0.0000 O.2     1  UNL1       -0.2500
      8 O           7.9070    0.9839    0.0000 O.3     1  UNL1       -0.4501
      9 O           9.6318   -1.1069    0.0000 O.3     1  UNL1       -0.4505
     10 O           2.5452    1.3352    0.0000 O.3     1  UNL1       -0.5063
     11 O           5.0978    3.6958    0.0000 O.3     1  UNL1       -0.3875
     12 O           6.0834   -5.0088    0.0000 O.3     1  UNL1       -0.5028
     13 O           9.1141   -3.0387    0.0000 O.2     1  UNL1       -0.2449
     14 O           9.3730    1.2733    0.0000 O.3     1  UNL1       -0.4573
     15 O           7.6128   -6.3321    0.0000 O.3     1  UNL1       -0.5009
     16 O           9.5044   -5.6165    0.0000 O.3     1  UNL1       -0.5028
     17 O           9.4032    1.7628    0.0000 O.2     1  UNL1       -0.2449
     18 O           8.6659   -1.3656    0.0000 O.2     1  UNL1       -0.2449
     19 O          10.2764   -5.4565    0.0000 O.3     1  UNL1       -0.5028
     20 O           9.6578    2.5704    0.0000 O.3     1  UNL1       -0.5032
     21 O           7.7004    5.1206    0.0000 O.3     1  UNL1       -0.5032
     22 O          12.2589   -4.9416    0.0000 O.3     1  UNL1       -0.5009
     23 O           8.5975    3.0872    0.0000 O.2     1  UNL1       -0.2449
     24 O          12.7890   -2.9631    0.0000 O.3     1  UNL1       -0.5032
     25 O           9.5729    4.0740    0.0000 O.3     1  UNL1       -0.5009
     26 O           6.6586    4.8845    0.0000 O.3     1  UNL1       -0.5028
     27 O           4.8769    1.8258    0.0000 O.3     1  UNL1       -0.5032
     28 O           4.7555    3.2009    0.0000 O.3     1  UNL1       -0.5009
     29 O           7.8810    5.7516    0.0000 O.3     1  UNL1       -0.5028
     30 O           9.2851    6.4192    0.0000 O.3     1  UNL1       -0.5009
     31 O          11.0590    5.3950    0.0000 O.3     1  UNL1       -0.5032
     32 C           5.4086   -1.8559    0.0000 C.3     1  UNL1        0.2027
     33 C           5.8418   -0.9612    0.0000 C.3     1  UNL1        0.0801
     34 C           5.5710   -2.8367    0.0000 C.3     1  UNL1        0.1332
     35 C           6.7118   -0.4802    0.0000 C.3     1  UNL1        0.1545
     36 C           5.1272   -0.2786    0.0000 C.ar    1  UNL1        0.0474
     37 C           4.8041   -2.6621    0.0000 C.2     1  UNL1        0.2424
     38 C           7.6999   -0.5892    0.0000 C.3     1  UNL1        0.1809
     39 C           6.2694   -3.5442    0.0000 C.2     1  UNL1        0.0272
     40 C           4.2564   -0.7459    0.0000 C.ar    1  UNL1        0.1327
     41 C           6.4583   -2.3691    0.0000 C.2     1  UNL1        0.3195
     42 C           5.2618   -3.5599    0.0000 C.2     1  UNL1        0.1683
     43 C           5.1751    0.7496    0.0000 C.ar    1  UNL1        0.1354
     44 C           8.4070    0.1179    0.0000 C.3     1  UNL1        0.1834
     45 C           7.2479   -3.7191    0.0000 C.ar    1  UNL1        0.0426
     46 C           4.3043    1.2985    0.0000 C.ar    1  UNL1        0.0387
     47 C           3.3732   -0.2173    0.0000 C.ar    1  UNL1        0.0224
     48 C           9.3730   -0.1410    0.0000 C.3     1  UNL1        0.1774
     49 C           3.3973    0.8118    0.0000 C.ar    1  UNL1        0.1271
     50 C           8.1482   -3.2976    0.0000 C.ar    1  UNL1        0.0815
     51 C           4.3656    2.2639    0.0000 C.3     1  UNL1        0.0092
     52 C           6.0453    2.1883    0.0000 C.3     1  UNL1        0.1514
     53 C           5.2270    2.7041    0.0000 C.3     1  UNL1        0.1004
     54 C           8.4070   -2.3316    0.0000 C.2     1  UNL1        0.3411
     55 C           7.0326   -4.6942    0.0000 C.ar    1  UNL1        0.1705
     56 C           8.8553   -4.0047    0.0000 C.ar    1  UNL1        0.0464
     57 C          10.0801    0.5662    0.0000 C.3     1  UNL1        0.1333
     58 C           7.7877   -5.3475    0.0000 C.ar    1  UNL1        0.2019
     59 C           6.9272    2.6597    0.0000 C.ar    1  UNL1        0.0023
     60 C           8.7217   -4.9942    0.0000 C.ar    1  UNL1        0.1708
     61 C           9.8212   -3.7458    0.0000 C.ar    1  UNL1        0.0458
     62 C           8.4070    1.8499    0.0000 C.2     1  UNL1        0.3405
     63 C           9.3730   -2.0728    0.0000 C.2     1  UNL1        0.3405
     64 C          10.0801   -2.7799    0.0000 C.ar    1  UNL1        0.0740
     65 C           6.9599    3.6592    0.0000 C.ar    1  UNL1       -0.0095
     66 C           7.7764    2.1317    0.0000 C.ar    1  UNL1       -0.0095
     67 C          10.5463   -4.4936    0.0000 C.ar    1  UNL1        0.1708
     68 C           7.5410    2.3499    0.0000 C.ar    1  UNL1        0.0740
     69 C          11.0819   -2.4948    0.0000 C.ar    1  UNL1       -0.0017
     70 C           8.6584    2.6031    0.0000 C.ar    1  UNL1        0.1623
     71 C           7.8418    4.1306    0.0000 C.ar    1  UNL1        0.1623
     72 C           9.2730    2.3499    0.0000 C.2     1  UNL1        0.3401
     73 C          11.5545   -4.2318    0.0000 C.ar    1  UNL1        0.2012
     74 C           7.5410    3.3499    0.0000 C.ar    1  UNL1        0.0458
     75 C          11.8241   -3.2257    0.0000 C.ar    1  UNL1        0.1628
     76 C           8.6910    3.6026    0.0000 C.ar    1  UNL1        0.2006
     77 C           6.6470    1.8153    0.0000 C.ar    1  UNL1       -0.0017
     78 C           9.2730    3.3499    0.0000 C.ar    1  UNL1        0.0740
     79 C           8.4070    3.8499    0.0000 C.ar    1  UNL1        0.0458
     80 C           6.6470    3.8846    0.0000 C.ar    1  UNL1        0.1708
     81 C           5.7410    2.3291    0.0000 C.ar    1  UNL1        0.1628
     82 C           5.7410    3.3707    0.0000 C.ar    1  UNL1        0.2012
     83 C          10.1830    3.8568    0.0000 C.ar    1  UNL1       -0.0017
     84 C           8.3910    4.8914    0.0000 C.ar    1  UNL1        0.1708
     85 C           9.2890    5.4192    0.0000 C.ar    1  UNL1        0.2012
     86 C          10.1911    4.8984    0.0000 C.ar    1  UNL1        0.1628
     87 H           5.9214   -0.3463    0.0000 H       1  UNL1        0.0433
     88 H           5.0186   -3.1183    0.0000 H       1  UNL1        0.0509
     89 H           6.5901    0.1277    0.0000 H       1  UNL1        0.0780
     90 H           8.2727   -0.8265    0.0000 H       1  UNL1        0.0811
     91 H           8.7844    0.6097    0.0000 H       1  UNL1        0.0812
     92 H           2.8303   -0.5167    0.0000 H       1  UNL1        0.0691
     93 H           9.9718   -0.3014    0.0000 H       1  UNL1        0.0808
     94 H           4.1860    2.8573    0.0000 H       1  UNL1        0.0342
     95 H           3.7497    2.1926    0.0000 H       1  UNL1        0.0342
     96 H           6.5728    1.8625    0.0000 H       1  UNL1        0.0811
     97 H           5.7493    3.0382    0.0000 H       1  UNL1        0.0637
     98 H           4.1262   -4.4053    0.0000 H       1  UNL1        0.2923
     99 H          10.5185    0.1277    0.0000 H       1  UNL1        0.0736
    100 H          10.5185    1.0046    0.0000 H       1  UNL1        0.0736
    101 H           2.0000    1.0400    0.0000 H       1  UNL1        0.2921
    102 H           5.5902    4.0725    0.0000 H       1  UNL1        0.2100
    103 H           5.9581   -5.6160    0.0000 H       1  UNL1        0.2923
    104 H           6.4334    3.9866    0.0000 H       1  UNL1        0.0659
    105 H           7.7562    1.5120    0.0000 H       1  UNL1        0.0659
    106 H           8.0873   -6.7312    0.0000 H       1  UNL1        0.2924
    107 H           9.4130   -6.2297    0.0000 H       1  UNL1        0.2923
    108 H          11.2354   -1.8942    0.0000 H       1  UNL1        0.0664
    109 H           6.6542    1.1953    0.0000 H       1  UNL1        0.0664
    110 H          10.7097   -5.9000    0.0000 H       1  UNL1        0.2923
    111 H           9.9852    3.0969    0.0000 H       1  UNL1        0.2923
    112 H           7.1251    5.3515    0.0000 H       1  UNL1        0.2923
    113 H          10.7164    3.5406    0.0000 H       1  UNL1        0.0664
    114 H          12.8584   -4.7835    0.0000 H       1  UNL1        0.2924
    115 H          12.9472   -2.3636    0.0000 H       1  UNL1        0.2923
    116 H           9.5932    4.6937    0.0000 H       1  UNL1        0.2924
    117 H           6.1253    5.2007    0.0000 H       1  UNL1        0.2923
    118 H           4.8793    1.2058    0.0000 H       1  UNL1        0.2923
    119 H           4.3588    3.6774    0.0000 H       1  UNL1        0.2924
    120 H           8.1848    6.2921    0.0000 H       1  UNL1        0.2923
    121 H           9.8209    6.7312    0.0000 H       1  UNL1        0.2924
    122 H          11.5948    5.0830    0.0000 H       1  UNL1        0.2923
@<TRIPOS>BOND
     1     1    32    1
     2     1    40    1
     3     2    35    1
     4     2    41    1
     5     3    38    1
     6     3    54    1
     7     4    43    1
     8     4    52    1
     9     5    37    2
    10     6    42    1
    11     6    98    1
    12     7    41    2
    13     8    44    1
    14     8    62    1
    15     9    48    1
    16     9    63    1
    17    10    49    1
    18    10   101    1
    19    11    53    1
    20    11   102    1
    21    12    55    1
    22    12   103    1
    23    13    54    2
    24    14    57    1
    25    14    72    1
    26    15    58    1
    27    15   106    1
    28    16    60    1
    29    16   107    1
    30    17    62    2
    31    18    63    2
    32    19    67    1
    33    19   110    1
    34    20    70    1
    35    20   111    1
    36    21    71    1
    37    21   112    1
    38    22    73    1
    39    22   114    1
    40    23    72    2
    41    24    75    1
    42    24   115    1
    43    25    76    1
    44    25   116    1
    45    26    80    1
    46    26   117    1
    47    27    81    1
    48    27   118    1
    49    28    82    1
    50    28   119    1
    51    29    84    1
    52    29   120    1
    53    30    85    1
    54    30   121    1
    55    31    86    1
    56    31   122    1
    57    32    33    1
    58    32    34    1
    59    32    37    1
    60    33    35    1
    61    33    36    1
    62    33    87    1
    63    34    39    1
    64    34    41    1
    65    34    88    1
    66    35    38    1
    67    35    89    1
    68    36    40   ar
    69    36    43   ar
    70    37    42    1
    71    38    44    1
    72    38    90    1
    73    39    42    2
    74    39    45    1
    75    40    47   ar
    76    43    46   ar
    77    44    48    1
    78    44    91    1
    79    45    50   ar
    80    45    55   ar
    81    46    49   ar
    82    46    51    1
    83    47    49   ar
    84    47    92    1
    85    48    57    1
    86    48    93    1
    87    50    54    1
    88    50    56   ar
    89    51    53    1
    90    51    94    1
    91    51    95    1
    92    52    53    1
    93    52    59    1
    94    52    96    1
    95    53    97    1
    96    55    58   ar
    97    56    60   ar
    98    56    61    1
    99    57    99    1
   100    57   100    1
   101    58    60   ar
   102    59    65   ar
   103    59    66   ar
   104    61    64   ar
   105    61    67   ar
   106    62    68    1
   107    63    64    1
   108    64    69   ar
   109    65    71   ar
   110    65   104    1
   111    66    70   ar
   112    66   105    1
   113    67    73   ar
   114    68    74   ar
   115    68    77   ar
   116    69    75   ar
   117    69   108    1
   118    70    76   ar
   119    71    76   ar
   120    72    78    1
   121    73    75   ar
   122    74    79    1
   123    74    80   ar
   124    77    81   ar
   125    77   109    1
   126    78    79   ar
   127    78    83   ar
   128    79    84   ar
   129    80    82   ar
   130    81    82   ar
   131    83    86   ar
   132    83   113    1
   133    84    85   ar
   134    85    86   ar
