@<TRIPOS>MOLECULE
IMPHY002773
 10 9 0 0 0
SMALL
GASTEIGER

@<TRIPOS>ATOM
      1 O           6.0010   -0.2500    0.0000 O.3     1  UNL1       -0.4747
      2 O           2.5369   -0.2500    0.0000 O.3     1  UNL1       -0.4747
      3 O           4.2690   -1.2500    0.0000 O.2     1  UNL1       -0.2726
      4 O           5.1350    1.2500    0.0000 O.2     1  UNL1       -0.2412
      5 O           3.4030    1.2500    0.0000 O.2     1  UNL1       -0.2412
      6 C           4.2690   -0.2500    0.0000 C.2     1  UNL1        0.3448
      7 C           5.1350    0.2500    0.0000 C.2     1  UNL1        0.3843
      8 C           3.4030    0.2500    0.0000 C.2     1  UNL1        0.3843
      9 H           6.5380    0.0600    0.0000 H       1  UNL1        0.2955
     10 H           2.0000    0.0600    0.0000 H       1  UNL1        0.2955
@<TRIPOS>BOND
     1     1     7    1
     2     1     9    1
     3     2     8    1
     4     2    10    1
     5     3     6    2
     6     4     7    2
     7     5     8    2
     8     6     7    1
     9     6     8    1
