@<TRIPOS>MOLECULE
IMPHY010840
 29 30 0 0 0
SMALL
GASTEIGER

@<TRIPOS>ATOM
      1 O           5.5530   -1.8619    0.0000 O.3     1  UNL1       -0.3947
      2 C           2.1199    0.5418    0.0000 C.3     1  UNL1       -0.0289
      3 C           3.5188    0.5330    0.0000 C.3     1  UNL1       -0.0305
      4 C           3.2600    1.4990    0.0000 C.3     1  UNL1       -0.0353
      5 C           3.9966    2.4816    0.0000 C.3     1  UNL1       -0.0461
      6 C           4.7398   -0.3326    0.0000 C.3     1  UNL1       -0.0145
      7 C           5.2932    1.1878    0.0000 C.3     1  UNL1       -0.0494
      8 C           5.5689    0.2266    0.0000 C.3     1  UNL1       -0.0476
      9 C           1.2538    1.0418    0.0000 C.3     1  UNL1       -0.0593
     10 C           1.6199   -0.3242    0.0000 C.3     1  UNL1       -0.0593
     11 C           4.7049   -1.3320    0.0000 C.3     1  UNL1        0.0473
     12 H           3.7388   -0.2880    0.0000 H       1  UNL1        0.0309
     13 H           3.0400    2.3200    0.0000 H       1  UNL1        0.0306
     14 H           3.6788    3.0139    0.0000 H       1  UNL1        0.0271
     15 H           4.6097    2.5735    0.0000 H       1  UNL1        0.0271
     16 H           5.2821   -0.6332    0.0000 H       1  UNL1        0.0326
     17 H           5.2983    1.8078    0.0000 H       1  UNL1        0.0268
     18 H           5.9075    1.2716    0.0000 H       1  UNL1        0.0268
     19 H           6.1437    0.4588    0.0000 H       1  UNL1        0.0269
     20 H           5.8599   -0.3209    0.0000 H       1  UNL1        0.0269
     21 H           0.9438    0.5049    0.0000 H       1  UNL1        0.0235
     22 H           0.7169    1.3518    0.0000 H       1  UNL1        0.0235
     23 H           1.5638    1.5788    0.0000 H       1  UNL1        0.0235
     24 H           2.1568   -0.6342    0.0000 H       1  UNL1        0.0235
     25 H           1.3099   -0.8611    0.0000 H       1  UNL1        0.0235
     26 H           1.0829   -0.0142    0.0000 H       1  UNL1        0.0235
     27 H           4.4727   -1.9069    0.0000 H       1  UNL1        0.0560
     28 H           4.0985   -1.2031    0.0000 H       1  UNL1        0.0560
     29 H           5.5313   -2.4816    0.0000 H       1  UNL1        0.2094
@<TRIPOS>BOND
     1     1    11    1
     2     1    29    1
     3     2     3    1
     4     2     4    1
     5     2     9    1
     6     2    10    1
     7     3     5    1
     8     3     6    1
     9     3    12    1
    10     4     5    1
    11     4     7    1
    12     4    13    1
    13     5    14    1
    14     5    15    1
    15     6     8    1
    16     6    11    1
    17     6    16    1
    18     7     8    1
    19     7    17    1
    20     7    18    1
    21     8    19    1
    22     8    20    1
    23     9    21    1
    24     9    22    1
    25     9    23    1
    26    10    24    1
    27    10    25    1
    28    10    26    1
    29    11    27    1
    30    11    28    1
