@<TRIPOS>MOLECULE
IMPHY016143
 22 23 0 0 0
SMALL
GASTEIGER

@<TRIPOS>ATOM
      1 O           2.8660   -1.2673    0.0000 O.3     1  UNL1       -0.4945
      2 C           3.7320    0.2327    0.0000 C.ar    1  UNL1        0.0238
      3 C           3.7320    1.2327    0.0000 C.ar    1  UNL1       -0.0144
      4 C           2.8660   -0.2673    0.0000 C.ar    1  UNL1        0.1278
      5 C           2.8660    1.7327    0.0000 C.ar    1  UNL1       -0.0538
      6 C           4.6260   -0.3020    0.0000 C.ar    1  UNL1       -0.0505
      7 C           4.6260    1.7673    0.0000 C.ar    1  UNL1       -0.0539
      8 C           2.0000    0.2327    0.0000 C.ar    1  UNL1       -0.0193
      9 C           2.0000    1.2327    0.0000 C.ar    1  UNL1       -0.0577
     10 C           5.5321    0.2119    0.0000 C.ar    1  UNL1       -0.0611
     11 C           5.5321    1.2535    0.0000 C.ar    1  UNL1       -0.0612
     12 C           2.0000   -1.7673    0.0000 C.3     1  UNL1        0.0788
     13 H           2.8660    2.3527    0.0000 H       1  UNL1        0.0624
     14 H           4.6188   -0.9220    0.0000 H       1  UNL1        0.0625
     15 H           4.6188    2.3873    0.0000 H       1  UNL1        0.0624
     16 H           1.4631   -0.0773    0.0000 H       1  UNL1        0.0654
     17 H           1.4631    1.5427    0.0000 H       1  UNL1        0.0619
     18 H           6.0678   -0.1002    0.0000 H       1  UNL1        0.0618
     19 H           6.0678    1.5656    0.0000 H       1  UNL1        0.0618
     20 H           1.6900   -1.2304    0.0000 H       1  UNL1        0.0660
     21 H           1.4631   -2.0773    0.0000 H       1  UNL1        0.0660
     22 H           2.3100   -2.3043    0.0000 H       1  UNL1        0.0660
@<TRIPOS>BOND
     1     1     4    1
     2     1    12    1
     3     2     3   ar
     4     2     4   ar
     5     2     6   ar
     6     3     5   ar
     7     3     7   ar
     8     4     8   ar
     9     5     9   ar
    10     5    13    1
    11     6    10   ar
    12     6    14    1
    13     7    11   ar
    14     7    15    1
    15     8     9   ar
    16     8    16    1
    17     9    17    1
    18    10    11   ar
    19    10    18    1
    20    11    19    1
    21    12    20    1
    22    12    21    1
    23    12    22    1
