@<TRIPOS>MOLECULE
IMPHY013877
 23 24 0 0 0
SMALL
GASTEIGER

@<TRIPOS>ATOM
      1 O           6.3981    1.0000    0.0000 O.3     1  UNL1       -0.4528
      2 O           8.1301    1.0000    0.0000 O.3     1  UNL1       -0.3509
      3 O           2.8680    1.0241    0.0000 O.3     1  UNL1       -0.4950
      4 O           8.1301   -1.0000    0.0000 O.2     1  UNL1       -0.2686
      5 N           6.3981   -1.0000    0.0000 N.am    1  UNL1       -0.2774
      6 C           5.5320   -0.5000    0.0000 C.ar    1  UNL1        0.0761
      7 C           5.5320    0.5000    0.0000 C.ar    1  UNL1        0.1490
      8 C           7.2641    0.5000    0.0000 C.3     1  UNL1        0.2772
      9 C           4.6381    1.0347    0.0000 C.ar    1  UNL1        0.0237
     10 C           7.2641   -0.5000    0.0000 C.2     1  UNL1        0.2861
     11 C           4.6381   -1.0347    0.0000 C.ar    1  UNL1       -0.0334
     12 C           3.7320    0.5208    0.0000 C.ar    1  UNL1        0.1237
     13 C           3.7320   -0.5208    0.0000 C.ar    1  UNL1       -0.0180
     14 C           2.0000    0.5275    0.0000 C.3     1  UNL1        0.0788
     15 H           7.2641    1.1200    0.0000 H       1  UNL1        0.1159
     16 H           6.3981   -1.6200    0.0000 H       1  UNL1        0.1551
     17 H           4.6453    1.6546    0.0000 H       1  UNL1        0.0691
     18 H           4.6453   -1.6546    0.0000 H       1  UNL1        0.0638
     19 H           3.1963   -0.8329    0.0000 H       1  UNL1        0.0655
     20 H           8.1301    1.6200    0.0000 H       1  UNL1        0.2140
     21 H           1.6921    1.0656    0.0000 H       1  UNL1        0.0660
     22 H           1.4619    0.2196    0.0000 H       1  UNL1        0.0660
     23 H           2.3079   -0.0106    0.0000 H       1  UNL1        0.0660
@<TRIPOS>BOND
     1     1     7    1
     2     1     8    1
     3     2     8    1
     4     2    20    1
     5     3    12    1
     6     3    14    1
     7     4    10    2
     8     5     6    1
     9     5    10   am
    10     5    16    1
    11     6     7   ar
    12     6    11   ar
    13     7     9   ar
    14     8    10    1
    15     8    15    1
    16     9    12   ar
    17     9    17    1
    18    11    13   ar
    19    11    18    1
    20    12    13   ar
    21    13    19    1
    22    14    21    1
    23    14    22    1
    24    14    23    1
