@<TRIPOS>MOLECULE
IMPHY004948
 40 40 0 0 0
SMALL
GASTEIGER

@<TRIPOS>ATOM
      1 O           6.3301   -0.5000    0.0000 O.2     1  UNL1       -0.2921
      2 C           5.4641   -2.0000    0.0000 C.3     1  UNL1        0.0193
      3 C           3.7320   -1.0000    0.0000 C.2     1  UNL1       -0.0605
      4 C           4.5981   -2.5000    0.0000 C.3     1  UNL1       -0.0397
      5 C           3.7320   -2.0000    0.0000 C.3     1  UNL1       -0.0302
      6 C           4.5981   -0.5000    0.0000 C.2     1  UNL1       -0.0049
      7 C           2.8660   -0.5000    0.0000 C.3     1  UNL1       -0.0249
      8 C           5.4641   -1.0000    0.0000 C.2     1  UNL1        0.1620
      9 C           4.5981    0.5000    0.0000 C.3     1  UNL1       -0.0207
     10 C           6.3301   -2.5000    0.0000 C.3     1  UNL1       -0.0554
     11 C           2.0000   -1.0000    0.0000 C.3     1  UNL1       -0.0589
     12 C           2.8660    0.5000    0.0000 C.3     1  UNL1       -0.0589
     13 C           5.4641    1.0000    0.0000 C.3     1  UNL1       -0.0282
     14 C           5.4641    2.0000    0.0000 C.2     1  UNL1       -0.0794
     15 C           6.3301    2.5000    0.0000 C.3     1  UNL1       -0.0440
     16 C           4.5981    2.5000    0.0000 C.2     1  UNL1       -0.0997
     17 H           5.4641   -2.6200    0.0000 H       1  UNL1        0.0378
     18 H           3.1215   -1.8923    0.0000 H       1  UNL1        0.0310
     19 H           3.5200   -2.5826    0.0000 H       1  UNL1        0.0310
     20 H           4.1996   -2.9750    0.0000 H       1  UNL1        0.0275
     21 H           4.9966   -2.9750    0.0000 H       1  UNL1        0.0275
     22 H           2.8660   -1.1200    0.0000 H       1  UNL1        0.0340
     23 H           4.3860    1.0826    0.0000 H       1  UNL1        0.0317
     24 H           3.9875    0.3923    0.0000 H       1  UNL1        0.0317
     25 H           6.0201   -3.0369    0.0000 H       1  UNL1        0.0237
     26 H           6.8671   -2.8100    0.0000 H       1  UNL1        0.0237
     27 H           6.6401   -1.9631    0.0000 H       1  UNL1        0.0237
     28 H           3.4860    0.5000    0.0000 H       1  UNL1        0.0235
     29 H           2.8660    1.1200    0.0000 H       1  UNL1        0.0235
     30 H           2.2460    0.5000    0.0000 H       1  UNL1        0.0235
     31 H           1.6900   -0.4631    0.0000 H       1  UNL1        0.0235
     32 H           1.4631   -1.3100    0.0000 H       1  UNL1        0.0235
     33 H           2.3100   -1.5369    0.0000 H       1  UNL1        0.0235
     34 H           5.6762    0.4174    0.0000 H       1  UNL1        0.0313
     35 H           6.0747    1.1077    0.0000 H       1  UNL1        0.0313
     36 H           6.6401    1.9631    0.0000 H       1  UNL1        0.0274
     37 H           6.8671    2.8100    0.0000 H       1  UNL1        0.0274
     38 H           6.0201    3.0369    0.0000 H       1  UNL1        0.0274
     39 H           4.5981    3.1200    0.0000 H       1  UNL1        0.0534
     40 H           4.0611    2.1900    0.0000 H       1  UNL1        0.0534
@<TRIPOS>BOND
     1     1     8    2
     2     2     4    1
     3     2     8    1
     4     2    10    1
     5     2    17    1
     6     3     5    1
     7     3     6    2
     8     3     7    1
     9     4     5    1
    10     4    20    1
    11     4    21    1
    12     5    18    1
    13     5    19    1
    14     6     8    1
    15     6     9    1
    16     7    11    1
    17     7    12    1
    18     7    22    1
    19     9    13    1
    20     9    23    1
    21     9    24    1
    22    10    25    1
    23    10    26    1
    24    10    27    1
    25    11    31    1
    26    11    32    1
    27    11    33    1
    28    12    28    1
    29    12    29    1
    30    12    30    1
    31    13    14    1
    32    13    34    1
    33    13    35    1
    34    14    15    1
    35    14    16    2
    36    15    36    1
    37    15    37    1
    38    15    38    1
    39    16    39    1
    40    16    40    1
