@<TRIPOS>MOLECULE
IMPHY007883
 43 47 0 0 0
SMALL
GASTEIGER

@<TRIPOS>ATOM
      1 N           2.8393   -0.4854    0.0000 N.3     1  UNL1       -0.2930
      2 N           5.4814    0.0215    0.0000 N.ar    1  UNL1       -0.3180
      3 C           3.7493    1.0215    0.0000 C.3     1  UNL1        0.0112
      4 C           3.7493    0.0215    0.0000 C.3     1  UNL1        0.0606
      5 C           2.8911    1.5184    0.0000 C.3     1  UNL1       -0.0409
      6 C           4.6153   -0.4785    0.0000 C.ar    1  UNL1        0.0455
      7 C           2.0000    0.0428    0.0000 C.3     1  UNL1       -0.0004
      8 C           2.0256    1.0342    0.0000 C.3     1  UNL1       -0.0393
      9 C           3.7493    2.0215    0.0000 C.3     1  UNL1       -0.0449
     10 C           2.8313   -1.5270    0.0000 C.3     1  UNL1        0.0036
     11 C           4.6314   -1.5200    0.0000 C.ar    1  UNL1       -0.0158
     12 C           4.6153    1.5215    0.0000 C.2     1  UNL1       -0.0595
     13 C           3.7334   -2.0478    0.0000 C.3     1  UNL1       -0.0125
     14 C           5.4814    1.0215    0.0000 C.2     1  UNL1        0.0068
     15 C           5.6194   -1.6272    0.0000 C.ar    1  UNL1        0.0037
     16 C           6.0993   -0.7569    0.0000 C.ar    1  UNL1        0.0538
     17 C           2.8833    2.5215    0.0000 C.3     1  UNL1       -0.0644
     18 C           6.1408   -2.5215    0.0000 C.ar    1  UNL1       -0.0523
     19 C           7.1338   -0.7206    0.0000 C.ar    1  UNL1       -0.0373
     20 C           7.1760   -2.5091    0.0000 C.ar    1  UNL1       -0.0611
     21 C           7.6758   -1.6025    0.0000 C.ar    1  UNL1       -0.0598
     22 H           3.7493   -0.8285    0.0000 H       1  UNL1        0.0536
     23 H           3.2922    1.9912    0.0000 H       1  UNL1        0.0275
     24 H           2.4971    1.9971    0.0000 H       1  UNL1        0.0275
     25 H           1.3929    0.1687    0.0000 H       1  UNL1        0.0427
     26 H           1.7682   -0.5322    0.0000 H       1  UNL1        0.0427
     27 H           1.8239    1.6205    0.0000 H       1  UNL1        0.0278
     28 H           1.4128    0.9399    0.0000 H       1  UNL1        0.0278
     29 H           4.3599    1.9138    0.0000 H       1  UNL1        0.0272
     30 H           3.9614    2.6041    0.0000 H       1  UNL1        0.0272
     31 H           2.2213   -1.4162    0.0000 H       1  UNL1        0.0430
     32 H           2.6177   -2.1090    0.0000 H       1  UNL1        0.0430
     33 H           4.6153    2.1415    0.0000 H       1  UNL1        0.0593
     34 H           3.3361   -2.5238    0.0000 H       1  UNL1        0.0326
     35 H           4.1343   -2.5207    0.0000 H       1  UNL1        0.0326
     36 H           6.0183    1.3315    0.0000 H       1  UNL1        0.0810
     37 H           3.1933    3.0584    0.0000 H       1  UNL1        0.0230
     38 H           2.3464    2.8315    0.0000 H       1  UNL1        0.0230
     39 H           2.5733    1.9845    0.0000 H       1  UNL1        0.0230
     40 H           5.8352   -3.0609    0.0000 H       1  UNL1        0.0624
     41 H           7.4269   -0.1742    0.0000 H       1  UNL1        0.0638
     42 H           7.4944   -3.0410    0.0000 H       1  UNL1        0.0618
     43 H           8.2956   -1.5879    0.0000 H       1  UNL1        0.0618
@<TRIPOS>BOND
     1     1     4    1
     2     1     7    1
     3     1    10    1
     4     2     6   ar
     5     2    14    1
     6     2    16   ar
     7     3     4    1
     8     3     5    1
     9     3     9    1
    10     3    12    1
    11     4     6    1
    12     4    22    1
    13     5     8    1
    14     5    23    1
    15     5    24    1
    16     6    11   ar
    17     7     8    1
    18     7    25    1
    19     7    26    1
    20     8    27    1
    21     8    28    1
    22     9    17    1
    23     9    29    1
    24     9    30    1
    25    10    13    1
    26    10    31    1
    27    10    32    1
    28    11    13    1
    29    11    15   ar
    30    12    14    2
    31    12    33    1
    32    13    34    1
    33    13    35    1
    34    14    36    1
    35    15    16   ar
    36    15    18   ar
    37    16    19   ar
    38    17    37    1
    39    17    38    1
    40    17    39    1
    41    18    20   ar
    42    18    40    1
    43    19    21   ar
    44    19    41    1
    45    20    21   ar
    46    20    42    1
    47    21    43    1
