@<TRIPOS>MOLECULE
IMPHY013194
 56 61 0 0 0
SMALL
GASTEIGER

@<TRIPOS>ATOM
      1 O           9.1254   -1.2378    0.0000 O.3     1  UNL1       -0.3595
      2 O           7.3928    1.7630    0.0000 O.3     1  UNL1       -0.3231
      3 O           8.4683    2.2344    0.0000 O.3     1  UNL1       -0.4222
      4 O           3.7320   -2.2897    0.0000 O.3     1  UNL1       -0.4610
      5 O           9.9570    3.2035    0.0000 O.2     1  UNL1       -0.2452
      6 O           2.8718   -0.7864    0.0000 O.2     1  UNL1       -0.2512
      7 C           8.2591   -0.7374    0.0000 C.3     1  UNL1        0.1063
      8 C           7.3931   -0.2374    0.0000 C.3     1  UNL1        0.0295
      9 C           6.4831   -0.7442    0.0000 C.3     1  UNL1       -0.0204
     10 C           7.3931    0.7626    0.0000 C.3     1  UNL1        0.1389
     11 C           9.1251   -0.2374    0.0000 C.3     1  UNL1        0.1166
     12 C           8.2591    1.2626    0.0000 C.3     1  UNL1        0.2691
     13 C           6.4750   -1.7858    0.0000 C.3     1  UNL1       -0.0266
     14 C           8.2752   -1.7789    0.0000 C.3     1  UNL1       -0.0203
     15 C           9.1251    0.7626    0.0000 C.2     1  UNL1        0.0447
     16 C           7.3771   -2.3066    0.0000 C.3     1  UNL1       -0.0464
     17 C           5.5396   -2.3356    0.0000 C.3     1  UNL1        0.0055
     18 C           5.5562   -0.1802    0.0000 C.3     1  UNL1       -0.0436
     19 C           6.4908    0.2557    0.0000 C.3     1  UNL1       -0.0589
     20 C           4.6000   -1.7931    0.0000 C.3     1  UNL1        0.1084
     21 C           4.6084   -0.7081    0.0000 C.3     1  UNL1       -0.0146
     22 C           9.8621    1.4297    0.0000 C.2     1  UNL1        0.0416
     23 C           5.0430   -3.2035    0.0000 C.3     1  UNL1       -0.0562
     24 C           6.0430   -3.1996    0.0000 C.3     1  UNL1       -0.0562
     25 C           9.4570    2.3375    0.0000 C.2     1  UNL1        0.3378
     26 C          10.8406    1.2235    0.0000 C.3     1  UNL1       -0.0327
     27 C           2.8680   -1.7864    0.0000 C.2     1  UNL1        0.3042
     28 C           2.0000   -2.2830    0.0000 C.3     1  UNL1        0.0332
     29 H           8.1292    0.1876    0.0000 H       1  UNL1        0.0362
     30 H           6.5431    0.7625    0.0000 H       1  UNL1        0.0671
     31 H           9.9751   -0.2373    0.0000 H       1  UNL1        0.0675
     32 H           6.4783   -2.6358    0.0000 H       1  UNL1        0.0312
     33 H           8.4932   -2.3593    0.0000 H       1  UNL1        0.0294
     34 H           8.8843   -1.6634    0.0000 H       1  UNL1        0.0294
     35 H           6.9798   -2.7826    0.0000 H       1  UNL1        0.0269
     36 H           7.7781   -2.7795    0.0000 H       1  UNL1        0.0269
     37 H           5.9644    0.2865    0.0000 H       1  UNL1        0.0272
     38 H           5.1663    0.3019    0.0000 H       1  UNL1        0.0272
     39 H           7.1108    0.2510    0.0000 H       1  UNL1        0.0235
     40 H           6.4956    0.8757    0.0000 H       1  UNL1        0.0235
     41 H           5.8708    0.2605    0.0000 H       1  UNL1        0.0235
     42 H           4.0648   -1.4800    0.0000 H       1  UNL1        0.0739
     43 H           4.4038   -0.1228    0.0000 H       1  UNL1        0.0301
     44 H           3.9967   -0.8095    0.0000 H       1  UNL1        0.0301
     45 H           4.5048   -2.8956    0.0000 H       1  UNL1        0.0236
     46 H           4.7350   -3.7416    0.0000 H       1  UNL1        0.0236
     47 H           5.5811   -3.5114    0.0000 H       1  UNL1        0.0236
     48 H           5.5072   -3.5117    0.0000 H       1  UNL1        0.0236
     49 H           6.3550   -3.7354    0.0000 H       1  UNL1        0.0236
     50 H           6.5787   -2.8876    0.0000 H       1  UNL1        0.0236
     51 H          10.7128    0.6168    0.0000 H       1  UNL1        0.0280
     52 H          11.4473    1.0956    0.0000 H       1  UNL1        0.0280
     53 H          10.9685    1.8302    0.0000 H       1  UNL1        0.0280
     54 H           1.6921   -1.7449    0.0000 H       1  UNL1        0.0342
     55 H           1.4619   -2.5910    0.0000 H       1  UNL1        0.0342
     56 H           2.3079   -2.8212    0.0000 H       1  UNL1        0.0342
@<TRIPOS>BOND
     1     7     1    1
     2     1    11    1
     3     2    10    1
     4    12     2    1
     5     3    12    1
     6     3    25    1
     7    20     4    1
     8     4    27    1
     9     5    25    2
    10     6    27    2
    11     7     8    1
    12     7    11    1
    13     7    14    1
    14     8     9    1
    15     8    10    1
    16     8    29    1
    17     9    13    1
    18     9    18    1
    19     9    19    1
    20    10    12    1
    21    10    30    1
    22    11    15    1
    23    11    31    1
    24    12    15    1
    25    13    16    1
    26    13    17    1
    27    13    32    1
    28    14    16    1
    29    14    33    1
    30    14    34    1
    31    15    22    2
    32    16    35    1
    33    16    36    1
    34    17    20    1
    35    17    23    1
    36    17    24    1
    37    18    21    1
    38    18    37    1
    39    18    38    1
    40    19    39    1
    41    19    40    1
    42    19    41    1
    43    20    21    1
    44    20    42    1
    45    21    43    1
    46    21    44    1
    47    22    25    1
    48    22    26    1
    49    23    45    1
    50    23    46    1
    51    23    47    1
    52    24    48    1
    53    24    49    1
    54    24    50    1
    55    26    51    1
    56    26    52    1
    57    26    53    1
    58    27    28    1
    59    28    54    1
    60    28    55    1
    61    28    56    1
