@<TRIPOS>MOLECULE
IMPHY009709
 40 41 0 0 0
SMALL
GASTEIGER

@<TRIPOS>ATOM
      1 O           3.8021    2.2961    0.0000 O.2     1  UNL1       -0.2968
      2 C           4.3743   -0.2995    0.0000 C.3     1  UNL1       -0.0222
      3 C           4.3693    0.7005    0.0000 C.3     1  UNL1        0.0296
      4 C           5.3220   -0.5995    0.0000 C.3     1  UNL1       -0.0347
      5 C           5.3140    1.0099    0.0000 C.3     1  UNL1       -0.0404
      6 C           5.9016    0.2081    0.0000 C.3     1  UNL1       -0.0488
      7 C           3.5956   -0.9269    0.0000 C.3     1  UNL1       -0.0280
      8 C           5.6374   -1.5485    0.0000 C.3     1  UNL1       -0.0436
      9 C           3.5844    1.3201    0.0000 C.2     1  UNL1        0.1398
     10 C           4.3644    1.7005    0.0000 C.3     1  UNL1       -0.0526
     11 C           2.6106    1.0927    0.0000 C.3     1  UNL1        0.0100
     12 C           2.6196   -0.7092    0.0000 C.2     1  UNL1       -0.0759
     13 C           2.1812    0.1896    0.0000 C.3     1  UNL1       -0.0253
     14 C           6.6170   -1.7498    0.0000 C.3     1  UNL1       -0.0624
     15 C           4.9733   -2.2961    0.0000 C.3     1  UNL1       -0.0624
     16 C           2.0000   -1.4942    0.0000 C.2     1  UNL1       -0.0994
     17 H           4.5314   -1.1349    0.0000 H       1  UNL1        0.0316
     18 H           5.9350   -0.6927    0.0000 H       1  UNL1        0.0306
     19 H           5.8499    1.3218    0.0000 H       1  UNL1        0.0275
     20 H           5.0602    1.5756    0.0000 H       1  UNL1        0.0275
     21 H           6.3646   -0.2043    0.0000 H       1  UNL1        0.0268
     22 H           6.3604    0.6251    0.0000 H       1  UNL1        0.0268
     23 H           3.3294   -1.4868    0.0000 H       1  UNL1        0.0313
     24 H           4.0823   -1.3110    0.0000 H       1  UNL1        0.0313
     25 H           5.0301   -1.4236    0.0000 H       1  UNL1        0.0298
     26 H           4.9843    1.7036    0.0000 H       1  UNL1        0.0239
     27 H           4.3613    2.3205    0.0000 H       1  UNL1        0.0239
     28 H           3.7444    1.6974    0.0000 H       1  UNL1        0.0239
     29 H           2.6075    1.7127    0.0000 H       1  UNL1        0.0345
     30 H           2.0055    1.2276    0.0000 H       1  UNL1        0.0345
     31 H           1.6946    0.5737    0.0000 H       1  UNL1        0.0314
     32 H           1.6984   -0.1994    0.0000 H       1  UNL1        0.0314
     33 H           6.4921   -2.3571    0.0000 H       1  UNL1        0.0232
     34 H           7.2243   -1.8746    0.0000 H       1  UNL1        0.0232
     35 H           6.7418   -1.1425    0.0000 H       1  UNL1        0.0232
     36 H           4.5098   -1.8843    0.0000 H       1  UNL1        0.0232
     37 H           4.5616   -2.7596    0.0000 H       1  UNL1        0.0232
     38 H           5.4368   -2.7078    0.0000 H       1  UNL1        0.0232
     39 H           1.3865   -1.4048    0.0000 H       1  UNL1        0.0534
     40 H           2.2294   -2.0702    0.0000 H       1  UNL1        0.0534
@<TRIPOS>BOND
     1     1     9    2
     2     2     3    1
     3     2     4    1
     4     2     7    1
     5     2    17    1
     6     3     5    1
     7     3     9    1
     8     3    10    1
     9     4     6    1
    10     4     8    1
    11     4    18    1
    12     5     6    1
    13     5    19    1
    14     5    20    1
    15     6    21    1
    16     6    22    1
    17     7    12    1
    18     7    23    1
    19     7    24    1
    20     8    14    1
    21     8    15    1
    22     8    25    1
    23     9    11    1
    24    10    26    1
    25    10    27    1
    26    10    28    1
    27    11    13    1
    28    11    29    1
    29    11    30    1
    30    12    13    1
    31    12    16    2
    32    13    31    1
    33    13    32    1
    34    14    33    1
    35    14    34    1
    36    14    35    1
    37    15    36    1
    38    15    37    1
    39    15    38    1
    40    16    39    1
    41    16    40    1
