@<TRIPOS>MOLECULE
IMPHY013791
 24 24 0 0 0
SMALL
GASTEIGER

@<TRIPOS>ATOM
      1 O           2.0000    0.0000    0.0000 O.2     1  UNL1       -0.2876
      2 O           5.4641   -2.0000    0.0000 O.2     1  UNL1       -0.2879
      3 C           3.7320    1.0000    0.0000 C.3     1  UNL1       -0.0089
      4 C           3.7320    0.0000    0.0000 C.2     1  UNL1        0.0083
      5 C           3.7320    2.0000    0.0000 C.3     1  UNL1       -0.0559
      6 C           4.7320    1.0000    0.0000 C.3     1  UNL1       -0.0559
      7 C           2.7320    1.0000    0.0000 C.3     1  UNL1       -0.0559
      8 C           2.8660   -0.5000    0.0000 C.2     1  UNL1        0.1829
      9 C           4.5981   -0.5000    0.0000 C.2     1  UNL1       -0.0076
     10 C           4.5981   -1.5000    0.0000 C.2     1  UNL1        0.1795
     11 C           2.8660   -1.5000    0.0000 C.2     1  UNL1       -0.0110
     12 C           3.7320   -2.0000    0.0000 C.2     1  UNL1       -0.0113
     13 H           4.3520    2.0000    0.0000 H       1  UNL1        0.0238
     14 H           3.7320    2.6200    0.0000 H       1  UNL1        0.0238
     15 H           3.1120    2.0000    0.0000 H       1  UNL1        0.0238
     16 H           4.7320    0.3800    0.0000 H       1  UNL1        0.0238
     17 H           5.3520    1.0000    0.0000 H       1  UNL1        0.0238
     18 H           4.7320    1.6200    0.0000 H       1  UNL1        0.0238
     19 H           2.7320    1.6200    0.0000 H       1  UNL1        0.0238
     20 H           2.1120    1.0000    0.0000 H       1  UNL1        0.0238
     21 H           2.7320    0.3800    0.0000 H       1  UNL1        0.0238
     22 H           5.1350   -0.1900    0.0000 H       1  UNL1        0.0660
     23 H           2.3291   -1.8100    0.0000 H       1  UNL1        0.0657
     24 H           3.7320   -2.6200    0.0000 H       1  UNL1        0.0657
@<TRIPOS>BOND
     1     1     8    2
     2     2    10    2
     3     3     4    1
     4     3     5    1
     5     3     6    1
     6     3     7    1
     7     4     8    1
     8     4     9    2
     9     5    13    1
    10     5    14    1
    11     5    15    1
    12     6    16    1
    13     6    17    1
    14     6    18    1
    15     7    19    1
    16     7    20    1
    17     7    21    1
    18     8    11    1
    19     9    10    1
    20     9    22    1
    21    10    12    1
    22    11    12    2
    23    11    23    1
    24    12    24    1
