@<TRIPOS>MOLECULE
IMPHY016468
 21 20 0 0 0
SMALL
GASTEIGER

@<TRIPOS>ATOM
      1 O           2.5369    0.7500    0.0000 O.3     1  UNL1       -0.4806
      2 O           3.4030   -0.7500    0.0000 O.2     1  UNL1       -0.2510
      3 C           6.0010    0.7500    0.0000 C.3     1  UNL1       -0.0491
      4 C           5.1350    0.2500    0.0000 C.3     1  UNL1       -0.0427
      5 C           6.8671    0.2500    0.0000 C.3     1  UNL1       -0.0350
      6 C           4.2690    0.7500    0.0000 C.3     1  UNL1        0.0448
      7 C           7.7331    0.7500    0.0000 C.2     1  UNL1       -0.0911
      8 C           3.4030    0.2500    0.0000 C.2     1  UNL1        0.3047
      9 C           8.5991    0.2500    0.0000 C.2     1  UNL1       -0.1026
     10 H           4.7365   -0.2249    0.0000 H       1  UNL1        0.0270
     11 H           5.5335   -0.2249    0.0000 H       1  UNL1        0.0270
     12 H           6.3996    1.2250    0.0000 H       1  UNL1        0.0268
     13 H           5.6025    1.2250    0.0000 H       1  UNL1        0.0268
     14 H           6.4685   -0.2249    0.0000 H       1  UNL1        0.0307
     15 H           7.2656   -0.2249    0.0000 H       1  UNL1        0.0307
     16 H           4.6675    1.2250    0.0000 H       1  UNL1        0.0377
     17 H           3.8705    1.2250    0.0000 H       1  UNL1        0.0377
     18 H           7.7331    1.3700    0.0000 H       1  UNL1        0.0566
     19 H           8.5991   -0.3700    0.0000 H       1  UNL1        0.0532
     20 H           9.1360    0.5600    0.0000 H       1  UNL1        0.0532
     21 H           2.0000    0.4400    0.0000 H       1  UNL1        0.2951
@<TRIPOS>BOND
     1     1     8    1
     2     1    21    1
     3     2     8    2
     4     3     4    1
     5     3     5    1
     6     3    12    1
     7     3    13    1
     8     4     6    1
     9     4    10    1
    10     4    11    1
    11     5     7    1
    12     5    14    1
    13     5    15    1
    14     6     8    1
    15     6    16    1
    16     6    17    1
    17     7     9    2
    18     7    18    1
    19     9    19    1
    20     9    20    1
