@<TRIPOS>MOLECULE
IMPHY010875
 61 65 0 0 0
SMALL
GASTEIGER

@<TRIPOS>ATOM
      1 O           6.4260   -2.8314    0.0000 O.2     1  UNL1       -0.4819
      2 O           4.0232   -0.0307    0.0000 O.2     1  UNL1       -0.2868
      3 O           4.5559    0.8901    0.0000 O.2     1  UNL1       -0.2869
      4 O           4.6660   -3.7967    0.0000 O.2     1  UNL1       -0.2834
      5 O           8.1232    2.2578    0.0000 O.2     1  UNL1       -0.2869
      6 C           6.4260   -0.7620    0.0000 C.3     1  UNL1        0.0241
      7 C           7.3321   -2.3175    0.0000 C.3     1  UNL1        0.1061
      8 C           7.3321   -1.2759    0.0000 C.3     1  UNL1       -0.0022
      9 C           5.5321   -1.2967    0.0000 C.2     1  UNL1        0.0529
     10 C           6.4144    0.2379    0.0000 C.2     1  UNL1        0.0147
     11 C           5.5321   -2.2967    0.0000 C.2     1  UNL1        0.1757
     12 C           7.8287   -3.1855    0.0000 C.3     1  UNL1       -0.0252
     13 C           8.3321   -2.3214    0.0000 C.3     1  UNL1       -0.0252
     14 C           7.2746    0.7479    0.0000 C.2     1  UNL1        0.0110
     15 C           4.6660   -0.7967    0.0000 C.2     1  UNL1        0.1941
     16 C           5.5427    0.7278    0.0000 C.2     1  UNL1        0.1909
     17 C           4.6660   -2.7967    0.0000 C.2     1  UNL1        0.2284
     18 C           3.8000   -1.2967    0.0000 C.ar    1  UNL1        0.0330
     19 C           3.8000   -2.2967    0.0000 C.ar    1  UNL1        0.0362
     20 C           5.5311    1.7278    0.0000 C.ar    1  UNL1        0.0328
     21 C           8.1464    0.2579    0.0000 C.3     1  UNL1       -0.0052
     22 C           7.2631    1.7478    0.0000 C.2     1  UNL1        0.1906
     23 C           6.3913    2.2378    0.0000 C.ar    1  UNL1        0.0327
     24 C           2.9061   -0.7620    0.0000 C.ar    1  UNL1       -0.0502
     25 C           2.9061   -2.8314    0.0000 C.ar    1  UNL1       -0.0501
     26 C           4.6153    2.2241    0.0000 C.ar    1  UNL1       -0.0502
     27 C           9.0066    0.7679    0.0000 C.2     1  UNL1       -0.0809
     28 C           6.3953    3.2794    0.0000 C.ar    1  UNL1       -0.0502
     29 C           2.0000   -1.2759    0.0000 C.ar    1  UNL1       -0.0610
     30 C           2.0000   -2.3175    0.0000 C.ar    1  UNL1       -0.0610
     31 C           4.5952    3.2655    0.0000 C.ar    1  UNL1       -0.0610
     32 C           5.4912    3.7967    0.0000 C.ar    1  UNL1       -0.0610
     33 C           9.8783    0.2779    0.0000 C.2     1  UNL1       -0.0793
     34 C          10.7385    0.7879    0.0000 C.3     1  UNL1       -0.0440
     35 C           9.8899   -0.7220    0.0000 C.3     1  UNL1       -0.0440
     36 H           6.9599   -0.4469    0.0000 H       1  UNL1        0.0402
     37 H           7.9429   -1.3820    0.0000 H       1  UNL1        0.0313
     38 H           7.5411   -0.6922    0.0000 H       1  UNL1        0.0313
     39 H           8.3297   -2.9414    0.0000 H       1  UNL1        0.0268
     40 H           8.9521   -2.3238    0.0000 H       1  UNL1        0.0268
     41 H           8.3344   -1.7014    0.0000 H       1  UNL1        0.0268
     42 H           7.2906   -3.4934    0.0000 H       1  UNL1        0.0268
     43 H           8.1366   -3.7236    0.0000 H       1  UNL1        0.0268
     44 H           8.3668   -2.8775    0.0000 H       1  UNL1        0.0268
     45 H           7.7534   -0.2216    0.0000 H       1  UNL1        0.0357
     46 H           8.5504   -0.2124    0.0000 H       1  UNL1        0.0357
     47 H           2.9132   -0.1421    0.0000 H       1  UNL1        0.0625
     48 H           2.9132   -3.4513    0.0000 H       1  UNL1        0.0625
     49 H           4.0857    1.9017    0.0000 H       1  UNL1        0.0625
     50 H           8.9994    1.3878    0.0000 H       1  UNL1        0.0575
     51 H           6.9323    3.5894    0.0000 H       1  UNL1        0.0625
     52 H           1.4643   -0.9638    0.0000 H       1  UNL1        0.0618
     53 H           1.4643   -2.6296    0.0000 H       1  UNL1        0.0618
     54 H           4.0536    3.5672    0.0000 H       1  UNL1        0.0618
     55 H           5.4865    4.4167    0.0000 H       1  UNL1        0.0618
     56 H           9.2699   -0.7292    0.0000 H       1  UNL1        0.0274
     57 H           9.8970   -1.3420    0.0000 H       1  UNL1        0.0274
     58 H          10.5098   -0.7148    0.0000 H       1  UNL1        0.0274
     59 H          11.0547    0.2546    0.0000 H       1  UNL1        0.0274
     60 H          11.2718    1.1041    0.0000 H       1  UNL1        0.0274
     61 H          10.4223    1.3212    0.0000 H       1  UNL1        0.0274
@<TRIPOS>BOND
     1     1     7    1
     2     1    11    1
     3     2    15    2
     4     3    16    2
     5     4    17    2
     6     5    22    2
     7     6     8    1
     8     6     9    1
     9     6    10    1
    10     6    36    1
    11     7     8    1
    12     7    12    1
    13     7    13    1
    14     8    37    1
    15     8    38    1
    16     9    11    2
    17     9    15    1
    18    10    14    2
    19    10    16    1
    20    11    17    1
    21    12    42    1
    22    12    43    1
    23    12    44    1
    24    13    39    1
    25    13    40    1
    26    13    41    1
    27    14    21    1
    28    14    22    1
    29    15    18    1
    30    16    20    1
    31    17    19    1
    32    18    19   ar
    33    18    24   ar
    34    19    25   ar
    35    20    23   ar
    36    20    26   ar
    37    21    27    1
    38    21    45    1
    39    21    46    1
    40    22    23    1
    41    23    28   ar
    42    24    29   ar
    43    24    47    1
    44    25    30   ar
    45    25    48    1
    46    26    31   ar
    47    26    49    1
    48    27    33    2
    49    27    50    1
    50    28    32   ar
    51    28    51    1
    52    29    30   ar
    53    29    52    1
    54    30    53    1
    55    31    32   ar
    56    31    54    1
    57    32    55    1
    58    33    34    1
    59    33    35    1
    60    34    59    1
    61    34    60    1
    62    34    61    1
    63    35    56    1
    64    35    57    1
    65    35    58    1
