@<TRIPOS>MOLECULE
IMPHY010253
 87 90 0 0 0
SMALL
GASTEIGER

@<TRIPOS>ATOM
      1 O          13.7953    0.6550    0.0000 O.3     1  UNL1       -0.3401
      2 O          12.0632    0.6550    0.0000 O.3     1  UNL1       -0.3405
      3 O           7.7331    0.1550    0.0000 O.3     1  UNL1       -0.3405
      4 O           9.4651    0.1550    0.0000 O.3     1  UNL1       -0.3460
      5 O          15.5273    1.6550    0.0000 O.3     1  UNL1       -0.3865
      6 O          12.0632    1.6550    0.0000 O.3     1  UNL1       -0.3865
      7 O          15.5273    3.6550    0.0000 O.3     1  UNL1       -0.3865
      8 O          12.0632    3.6550    0.0000 O.3     1  UNL1       -0.3865
      9 O          13.7953    4.6550    0.0000 O.3     1  UNL1       -0.3865
     10 O          13.7953   -1.3450    0.0000 O.3     1  UNL1       -0.3841
     11 O          12.0632   -2.3450    0.0000 O.3     1  UNL1       -0.3864
     12 O          10.3312   -1.3450    0.0000 O.3     1  UNL1       -0.3865
     13 O           6.0010   -0.8450    0.0000 O.3     1  UNL1       -0.3460
     14 O           5.1350   -2.3450    0.0000 O.3     1  UNL1       -0.3405
     15 O           6.0010    2.1550    0.0000 O.3     1  UNL1       -0.3865
     16 O           9.4651    2.1550    0.0000 O.3     1  UNL1       -0.3841
     17 O           7.7331    3.1550    0.0000 O.3     1  UNL1       -0.3864
     18 O           4.2690    0.1550    0.0000 O.3     1  UNL1       -0.3841
     19 O           2.5369   -0.8450    0.0000 O.3     1  UNL1       -0.3864
     20 O           2.5369   -2.8450    0.0000 O.3     1  UNL1       -0.3865
     21 O           5.1350   -4.3450    0.0000 O.3     1  UNL1       -0.3924
     22 C          13.7953    1.6550    0.0000 C.3     1  UNL1        0.1183
     23 C          14.6613    2.1550    0.0000 C.3     1  UNL1        0.1122
     24 C          12.9292    2.1550    0.0000 C.3     1  UNL1        0.1122
     25 C          14.6613    3.1550    0.0000 C.3     1  UNL1        0.1118
     26 C          12.9292    3.1550    0.0000 C.3     1  UNL1        0.1118
     27 C          13.7953    3.6550    0.0000 C.3     1  UNL1        0.1118
     28 C          12.9292    0.1550    0.0000 C.3     1  UNL1        0.1884
     29 C          12.9292   -0.8450    0.0000 C.3     1  UNL1        0.1341
     30 C          11.1972    0.1550    0.0000 C.3     1  UNL1        0.1134
     31 C          12.0632   -1.3450    0.0000 C.3     1  UNL1        0.1141
     32 C          11.1972   -0.8450    0.0000 C.3     1  UNL1        0.1119
     33 C           6.8671    0.6550    0.0000 C.3     1  UNL1        0.1134
     34 C          10.3312    0.6550    0.0000 C.3     1  UNL1        0.0796
     35 C           8.5991    0.6550    0.0000 C.3     1  UNL1        0.1880
     36 C           6.8671    1.6550    0.0000 C.3     1  UNL1        0.1119
     37 C           8.5991    1.6550    0.0000 C.3     1  UNL1        0.1341
     38 C           7.7331    2.1550    0.0000 C.3     1  UNL1        0.1141
     39 C           6.0010    0.1550    0.0000 C.3     1  UNL1        0.0796
     40 C           5.1350   -1.3450    0.0000 C.3     1  UNL1        0.1880
     41 C           4.2690   -0.8450    0.0000 C.3     1  UNL1        0.1341
     42 C           3.4030   -1.3450    0.0000 C.3     1  UNL1        0.1141
     43 C           3.4030   -2.3450    0.0000 C.3     1  UNL1        0.1119
     44 C           4.2690   -2.8450    0.0000 C.3     1  UNL1        0.1130
     45 C           4.2690   -3.8450    0.0000 C.3     1  UNL1        0.0730
     46 H          14.3322    1.3450    0.0000 H       1  UNL1        0.0651
     47 H          15.1982    2.4650    0.0000 H       1  UNL1        0.0647
     48 H          12.3923    2.4650    0.0000 H       1  UNL1        0.0647
     49 H          14.6613    3.7750    0.0000 H       1  UNL1        0.0647
     50 H          12.9292    3.7750    0.0000 H       1  UNL1        0.0647
     51 H          13.2583    3.9650    0.0000 H       1  UNL1        0.0647
     52 H          13.4662   -0.1550    0.0000 H       1  UNL1        0.0938
     53 H          12.9292   -1.4650    0.0000 H       1  UNL1        0.0671
     54 H          11.1972    0.7750    0.0000 H       1  UNL1        0.0647
     55 H          11.5263   -1.6550    0.0000 H       1  UNL1        0.0648
     56 H          10.6603   -0.5350    0.0000 H       1  UNL1        0.0647
     57 H           6.8671    0.0350    0.0000 H       1  UNL1        0.0647
     58 H          10.7297    1.1300    0.0000 H       1  UNL1        0.0587
     59 H           9.9326    1.1300    0.0000 H       1  UNL1        0.0587
     60 H           8.5991    0.0350    0.0000 H       1  UNL1        0.0937
     61 H           6.8671    2.2750    0.0000 H       1  UNL1        0.0647
     62 H           8.5991    2.2750    0.0000 H       1  UNL1        0.0671
     63 H           8.2700    2.4650    0.0000 H       1  UNL1        0.0648
     64 H           5.7890    0.7376    0.0000 H       1  UNL1        0.0587
     65 H           5.3905    0.0473    0.0000 H       1  UNL1        0.0587
     66 H          16.0643    1.9650    0.0000 H       1  UNL1        0.2100
     67 H          11.5263    1.9650    0.0000 H       1  UNL1        0.2100
     68 H           5.1350   -0.7250    0.0000 H       1  UNL1        0.0937
     69 H           3.7320   -0.5350    0.0000 H       1  UNL1        0.0671
     70 H           2.8660   -1.6550    0.0000 H       1  UNL1        0.0648
     71 H          15.5273    4.2750    0.0000 H       1  UNL1        0.2100
     72 H          12.0632    4.2750    0.0000 H       1  UNL1        0.2100
     73 H           3.4030   -2.9650    0.0000 H       1  UNL1        0.0647
     74 H          14.3322    4.9650    0.0000 H       1  UNL1        0.2100
     75 H           4.8059   -3.1550    0.0000 H       1  UNL1        0.0647
     76 H          13.7953   -1.9650    0.0000 H       1  UNL1        0.2101
     77 H          11.5263   -2.6550    0.0000 H       1  UNL1        0.2100
     78 H          10.3312   -1.9650    0.0000 H       1  UNL1        0.2100
     79 H           5.4641    1.8450    0.0000 H       1  UNL1        0.2100
     80 H           9.4651    2.7750    0.0000 H       1  UNL1        0.2101
     81 H           7.1962    3.4650    0.0000 H       1  UNL1        0.2100
     82 H           3.6584   -3.7373    0.0000 H       1  UNL1        0.0584
     83 H           4.0569   -4.4276    0.0000 H       1  UNL1        0.0584
     84 H           3.7320    0.4650    0.0000 H       1  UNL1        0.2101
     85 H           2.0000   -1.1550    0.0000 H       1  UNL1        0.2100
     86 H           2.5369   -3.4650    0.0000 H       1  UNL1        0.2100
     87 H           5.1350   -4.9650    0.0000 H       1  UNL1        0.2095
@<TRIPOS>BOND
     1     1    22    1
     2    28     1    1
     3     2    28    1
     4     2    30    1
     5     3    33    1
     6     3    35    1
     7     4    34    1
     8    35     4    1
     9    23     5    1
    10     5    66    1
    11    24     6    1
    12     6    67    1
    13    25     7    1
    14     7    71    1
    15    26     8    1
    16     8    72    1
    17     9    27    1
    18     9    74    1
    19    29    10    1
    20    10    76    1
    21    31    11    1
    22    11    77    1
    23    32    12    1
    24    12    78    1
    25    13    39    1
    26    40    13    1
    27    14    40    1
    28    14    44    1
    29    36    15    1
    30    15    79    1
    31    37    16    1
    32    16    80    1
    33    38    17    1
    34    17    81    1
    35    41    18    1
    36    18    84    1
    37    42    19    1
    38    19    85    1
    39    43    20    1
    40    20    86    1
    41    21    45    1
    42    21    87    1
    43    22    23    1
    44    22    24    1
    45    22    46    1
    46    23    25    1
    47    23    47    1
    48    24    26    1
    49    24    48    1
    50    25    27    1
    51    25    49    1
    52    26    27    1
    53    26    50    1
    54    27    51    1
    55    28    29    1
    56    28    52    1
    57    29    31    1
    58    29    53    1
    59    30    32    1
    60    30    34    1
    61    30    54    1
    62    31    32    1
    63    31    55    1
    64    32    56    1
    65    33    36    1
    66    33    39    1
    67    33    57    1
    68    34    58    1
    69    34    59    1
    70    35    37    1
    71    35    60    1
    72    36    38    1
    73    36    61    1
    74    37    38    1
    75    37    62    1
    76    38    63    1
    77    39    64    1
    78    39    65    1
    79    40    41    1
    80    40    68    1
    81    41    42    1
    82    41    69    1
    83    42    43    1
    84    42    70    1
    85    43    44    1
    86    43    73    1
    87    44    45    1
    88    44    75    1
    89    45    82    1
    90    45    83    1
