@<TRIPOS>MOLECULE
IMPHY006500
 36 38 0 0 0
SMALL
GASTEIGER

@<TRIPOS>ATOM
      1 O           6.0682   -0.4254    0.0000 O.3     1  UNL1       -0.4802
      2 O           7.8003    1.5746    0.0000 O.3     1  UNL1       -0.3798
      3 O           6.0682    2.5746    0.0000 O.2     1  UNL1       -0.2889
      4 O           4.3198    2.6092    0.0000 O.3     1  UNL1       -0.5058
      5 O           2.5381   -0.4495    0.0000 O.3     1  UNL1       -0.5065
      6 O          10.3984   -1.9254    0.0000 O.3     1  UNL1       -0.4951
      7 C           6.9343    0.0746    0.0000 C.3     1  UNL1        0.1581
      8 C           6.9343    1.0746    0.0000 C.3     1  UNL1        0.1585
      9 C           7.8003   -0.4254    0.0000 C.ar    1  UNL1       -0.0042
     10 C           6.0682    1.5746    0.0000 C.2     1  UNL1        0.2024
     11 C           5.2022    1.0746    0.0000 C.ar    1  UNL1        0.1033
     12 C           5.2022    0.0746    0.0000 C.ar    1  UNL1        0.1391
     13 C           4.3083    1.6093    0.0000 C.ar    1  UNL1        0.1344
     14 C           7.8003   -1.4254    0.0000 C.ar    1  UNL1       -0.0515
     15 C           8.6663    0.0746    0.0000 C.ar    1  UNL1       -0.0515
     16 C           4.3083   -0.4601    0.0000 C.ar    1  UNL1        0.0225
     17 C           3.4022    1.0954    0.0000 C.ar    1  UNL1        0.0222
     18 C           3.4022    0.0538    0.0000 C.ar    1  UNL1        0.1238
     19 C           8.6663   -1.9254    0.0000 C.ar    1  UNL1       -0.0196
     20 C           9.5323   -0.4254    0.0000 C.ar    1  UNL1       -0.0196
     21 C           9.5323   -1.4254    0.0000 C.ar    1  UNL1        0.1201
     22 C          10.3984   -2.9254    0.0000 C.3     1  UNL1        0.0788
     23 H           6.9343   -0.5454    0.0000 H       1  UNL1        0.0815
     24 H           6.9343    1.6946    0.0000 H       1  UNL1        0.0718
     25 H           7.2634   -1.7354    0.0000 H       1  UNL1        0.0623
     26 H           8.6663    0.6946    0.0000 H       1  UNL1        0.0623
     27 H           4.3154   -1.0800    0.0000 H       1  UNL1        0.0691
     28 H           7.8003    2.1946    0.0000 H       1  UNL1        0.2105
     29 H           2.8665    1.4075    0.0000 H       1  UNL1        0.0691
     30 H           8.6663   -2.5454    0.0000 H       1  UNL1        0.0654
     31 H          10.0693   -0.1154    0.0000 H       1  UNL1        0.0654
     32 H           3.7865    2.9254    0.0000 H       1  UNL1        0.2922
     33 H           2.0000   -0.1416    0.0000 H       1  UNL1        0.2921
     34 H           9.7784   -2.9254    0.0000 H       1  UNL1        0.0660
     35 H          10.3984   -3.5454    0.0000 H       1  UNL1        0.0660
     36 H          11.0184   -2.9254    0.0000 H       1  UNL1        0.0660
@<TRIPOS>BOND
     1     1     7    1
     2     1    12    1
     3     2     8    1
     4     2    28    1
     5     3    10    2
     6     4    13    1
     7     4    32    1
     8     5    18    1
     9     5    33    1
    10     6    21    1
    11     6    22    1
    12     7     8    1
    13     7     9    1
    14     7    23    1
    15     8    10    1
    16     8    24    1
    17     9    14   ar
    18     9    15   ar
    19    10    11    1
    20    11    12   ar
    21    11    13   ar
    22    12    16   ar
    23    13    17   ar
    24    14    19   ar
    25    14    25    1
    26    15    20   ar
    27    15    26    1
    28    16    18   ar
    29    16    27    1
    30    17    18   ar
    31    17    29    1
    32    19    21   ar
    33    19    30    1
    34    20    21   ar
    35    20    31    1
    36    22    34    1
    37    22    35    1
    38    22    36    1
