@<TRIPOS>MOLECULE
IMPHY011688
 81 85 0 0 0
SMALL
GASTEIGER

@<TRIPOS>ATOM
      1 O          11.1246    2.8304    0.0000 O.2     1  UNL1       -0.2971
      2 C           6.6507   -0.8139    0.0000 C.3     1  UNL1       -0.0231
      3 C           5.7847   -0.3139    0.0000 C.3     1  UNL1       -0.0230
      4 C           7.5167   -0.3139    0.0000 C.3     1  UNL1       -0.0294
      5 C           7.5167    0.6861    0.0000 C.3     1  UNL1       -0.0254
      6 C           4.8746   -0.8208    0.0000 C.3     1  UNL1       -0.0292
      7 C           4.8666   -1.8624    0.0000 C.3     1  UNL1       -0.0287
      8 C           8.4106    1.2207    0.0000 C.3     1  UNL1       -0.0289
      9 C           5.7847    0.6861    0.0000 C.3     1  UNL1       -0.0463
     10 C           6.6507    1.1861    0.0000 C.3     1  UNL1       -0.0466
     11 C           6.6667   -1.8554    0.0000 C.3     1  UNL1       -0.0463
     12 C           9.3167    0.7069    0.0000 C.3     1  UNL1       -0.0195
     13 C           8.4106   -0.8486    0.0000 C.3     1  UNL1       -0.0487
     14 C           5.7687   -2.3832    0.0000 C.3     1  UNL1       -0.0468
     15 C           3.9478   -0.2567    0.0000 C.3     1  UNL1       -0.0440
     16 C           9.3167   -0.3348    0.0000 C.3     1  UNL1       -0.0464
     17 C           7.5167   -1.3139    0.0000 C.3     1  UNL1       -0.0588
     18 C           4.9186    0.1861    0.0000 C.3     1  UNL1       -0.0588
     19 C           3.9312   -2.4121    0.0000 C.3     1  UNL1       -0.0469
     20 C           7.5167    1.6861    0.0000 C.3     1  UNL1       -0.0590
     21 C           2.9999   -0.7846    0.0000 C.3     1  UNL1       -0.0346
     22 C           8.3856    2.3054    0.0000 C.3     1  UNL1       -0.0425
     23 C          10.2605    1.2421    0.0000 C.3     1  UNL1        0.0203
     24 C           2.9916   -1.8696    0.0000 C.3     1  UNL1       -0.0474
     25 C           4.8589   -2.8624    0.0000 C.3     1  UNL1       -0.0593
     26 C          10.1866    0.2136    0.0000 C.3     1  UNL1       -0.0587
     27 C           9.3167    2.8624    0.0000 C.3     1  UNL1        0.0064
     28 C          10.2605    2.3271    0.0000 C.2     1  UNL1        0.1367
     29 C           2.0000   -0.7731    0.0000 C.3     1  UNL1       -0.0598
     30 C           2.5100    0.0871    0.0000 C.3     1  UNL1       -0.0598
     31 C          11.1246    0.7388    0.0000 C.3     1  UNL1       -0.0552
     32 H           8.2561    0.1054    0.0000 H       1  UNL1        0.0312
     33 H           5.6058   -1.2543    0.0000 H       1  UNL1        0.0312
     34 H           9.1401    1.6570    0.0000 H       1  UNL1        0.0312
     35 H           5.5726    1.2687    0.0000 H       1  UNL1        0.0271
     36 H           5.1741    0.5784    0.0000 H       1  UNL1        0.0271
     37 H           7.0492    1.6610    0.0000 H       1  UNL1        0.0271
     38 H           6.2522    1.6610    0.0000 H       1  UNL1        0.0271
     39 H           6.8848   -2.4358    0.0000 H       1  UNL1        0.0271
     40 H           7.2759   -1.7399    0.0000 H       1  UNL1        0.0271
     41 H           8.0060   -1.3184    0.0000 H       1  UNL1        0.0268
     42 H           8.8043   -1.3276    0.0000 H       1  UNL1        0.0268
     43 H           5.3714   -2.8592    0.0000 H       1  UNL1        0.0271
     44 H           6.1697   -2.8561    0.0000 H       1  UNL1        0.0271
     45 H           4.3560    0.2100    0.0000 H       1  UNL1        0.0273
     46 H           3.5579    0.2253    0.0000 H       1  UNL1        0.0273
     47 H           9.5258   -0.9184    0.0000 H       1  UNL1        0.0271
     48 H           9.9276   -0.2287    0.0000 H       1  UNL1        0.0271
     49 H           7.2067   -1.8509    0.0000 H       1  UNL1        0.0235
     50 H           8.0536   -1.6239    0.0000 H       1  UNL1        0.0235
     51 H           7.8267   -0.7770    0.0000 H       1  UNL1        0.0235
     52 H           5.2286    0.7230    0.0000 H       1  UNL1        0.0235
     53 H           4.3817    0.4961    0.0000 H       1  UNL1        0.0235
     54 H           4.6086   -0.3509    0.0000 H       1  UNL1        0.0235
     55 H           3.5339   -2.8881    0.0000 H       1  UNL1        0.0271
     56 H           4.3322   -2.8850    0.0000 H       1  UNL1        0.0271
     57 H           8.1367    1.6861    0.0000 H       1  UNL1        0.0235
     58 H           7.5167    2.3061    0.0000 H       1  UNL1        0.0235
     59 H           6.8967    1.6861    0.0000 H       1  UNL1        0.0235
     60 H           8.1631    2.8841    0.0000 H       1  UNL1        0.0272
     61 H           7.7773    2.1852    0.0000 H       1  UNL1        0.0272
     62 H          10.7980    1.5511    0.0000 H       1  UNL1        0.0380
     63 H           2.3816   -1.7588    0.0000 H       1  UNL1        0.0271
     64 H           2.7780   -2.4517    0.0000 H       1  UNL1        0.0271
     65 H           4.2389   -2.8576    0.0000 H       1  UNL1        0.0235
     66 H           4.8541   -3.4823    0.0000 H       1  UNL1        0.0235
     67 H           5.4789   -2.8671    0.0000 H       1  UNL1        0.0235
     68 H           9.8807   -0.3257    0.0000 H       1  UNL1        0.0235
     69 H          10.7259   -0.0923    0.0000 H       1  UNL1        0.0235
     70 H          10.4924    0.7529    0.0000 H       1  UNL1        0.0235
     71 H           9.7103    3.3414    0.0000 H       1  UNL1        0.0342
     72 H           8.9121    3.3321    0.0000 H       1  UNL1        0.0342
     73 H           2.0072   -0.1531    0.0000 H       1  UNL1        0.0235
     74 H           1.3800   -0.7659    0.0000 H       1  UNL1        0.0235
     75 H           1.9928   -1.3930    0.0000 H       1  UNL1        0.0235
     76 H           3.0505    0.3909    0.0000 H       1  UNL1        0.0235
     77 H           2.2062    0.6276    0.0000 H       1  UNL1        0.0235
     78 H           1.9695   -0.2167    0.0000 H       1  UNL1        0.0235
     79 H          10.8125    0.2030    0.0000 H       1  UNL1        0.0237
     80 H          11.6603    0.4267    0.0000 H       1  UNL1        0.0237
     81 H          11.4367    1.2745    0.0000 H       1  UNL1        0.0237
@<TRIPOS>BOND
     1     1    28    2
     2     2     3    1
     3     2     4    1
     4     2    11    1
     5     2    17    1
     6     3     6    1
     7     3     9    1
     8     3    18    1
     9     4     5    1
    10     4    13    1
    11     4    32    1
    12     5     8    1
    13     5    10    1
    14     5    20    1
    15     6     7    1
    16     6    15    1
    17     6    33    1
    18     7    14    1
    19     7    19    1
    20     7    25    1
    21     8    12    1
    22     8    22    1
    23     8    34    1
    24     9    10    1
    25     9    35    1
    26     9    36    1
    27    10    37    1
    28    10    38    1
    29    11    14    1
    30    11    39    1
    31    11    40    1
    32    12    16    1
    33    12    23    1
    34    12    26    1
    35    13    16    1
    36    13    41    1
    37    13    42    1
    38    14    43    1
    39    14    44    1
    40    15    21    1
    41    15    45    1
    42    15    46    1
    43    16    47    1
    44    16    48    1
    45    17    49    1
    46    17    50    1
    47    17    51    1
    48    18    52    1
    49    18    53    1
    50    18    54    1
    51    19    24    1
    52    19    55    1
    53    19    56    1
    54    20    57    1
    55    20    58    1
    56    20    59    1
    57    21    24    1
    58    21    29    1
    59    21    30    1
    60    22    27    1
    61    22    60    1
    62    22    61    1
    63    23    28    1
    64    23    31    1
    65    23    62    1
    66    24    63    1
    67    24    64    1
    68    25    65    1
    69    25    66    1
    70    25    67    1
    71    26    68    1
    72    26    69    1
    73    26    70    1
    74    27    28    1
    75    27    71    1
    76    27    72    1
    77    29    73    1
    78    29    74    1
    79    29    75    1
    80    30    76    1
    81    30    77    1
    82    30    78    1
    83    31    79    1
    84    31    80    1
    85    31    81    1
