@<TRIPOS>MOLECULE
IMPHY012581
 58 60 0 0 0
SMALL
GASTEIGER

@<TRIPOS>ATOM
      1 O           6.3981   -1.7830    0.0000 O.3     1  UNL1       -0.4524
      2 O           3.7782    1.7485    0.0000 O.2     1  UNL1       -0.2837
      3 O           5.5442    2.7863    0.0000 O.2     1  UNL1       -0.4909
      4 O           7.3022   -0.2861    0.0000 O.2     1  UNL1       -0.2870
      5 O           5.5321   -3.2830    0.0000 O.2     1  UNL1       -0.2511
      6 C           3.8000   -0.2830    0.0000 C.3     1  UNL1        0.0187
      7 C           2.9061   -1.8176    0.0000 C.3     1  UNL1       -0.0129
      8 C           3.8000   -1.2830    0.0000 C.2     1  UNL1       -0.0537
      9 C           2.9061    0.2517    0.0000 C.3     1  UNL1       -0.0397
     10 C           2.0000   -1.3038    0.0000 C.3     1  UNL1       -0.0441
     11 C           2.0000   -0.2621    0.0000 C.3     1  UNL1       -0.0512
     12 C           4.6660    0.2170    0.0000 C.2     1  UNL1        0.0235
     13 C           3.8000    0.7170    0.0000 C.3     1  UNL1       -0.0516
     14 C           4.6660   -1.7830    0.0000 C.2     1  UNL1       -0.0388
     15 C           5.5321   -0.2830    0.0000 C.2     1  UNL1        0.0514
     16 C           5.5321   -1.2830    0.0000 C.3     1  UNL1        0.1505
     17 C           2.4161   -2.6894    0.0000 C.3     1  UNL1       -0.0561
     18 C           3.4160   -2.6778    0.0000 C.3     1  UNL1       -0.0561
     19 C           4.6500    1.2586    0.0000 C.2     1  UNL1        0.2251
     20 C           6.4421    0.2239    0.0000 C.2     1  UNL1        0.1933
     21 C           6.4501    1.2655    0.0000 C.2     1  UNL1        0.0476
     22 C           5.5480    1.7863    0.0000 C.2     1  UNL1        0.1739
     23 C           7.3180    1.7622    0.0000 C.3     1  UNL1       -0.0143
     24 C           6.3981   -2.7830    0.0000 C.2     1  UNL1        0.3048
     25 C           7.3219    2.7621    0.0000 C.3     1  UNL1       -0.0584
     26 C           8.1821    1.2588    0.0000 C.3     1  UNL1       -0.0584
     27 C           4.6762    3.2830    0.0000 C.3     1  UNL1        0.0790
     28 C           7.2641   -3.2830    0.0000 C.3     1  UNL1        0.0333
     29 H           3.3107    0.7215    0.0000 H       1  UNL1        0.0277
     30 H           2.5124    0.7307    0.0000 H       1  UNL1        0.0277
     31 H           1.3891   -1.1977    0.0000 H       1  UNL1        0.0273
     32 H           1.7909   -1.8875    0.0000 H       1  UNL1        0.0273
     33 H           1.7909    0.3216    0.0000 H       1  UNL1        0.0266
     34 H           1.3891   -0.3682    0.0000 H       1  UNL1        0.0266
     35 H           4.4200    0.7170    0.0000 H       1  UNL1        0.0241
     36 H           3.8000    1.3370    0.0000 H       1  UNL1        0.0241
     37 H           3.1800    0.7170    0.0000 H       1  UNL1        0.0241
     38 H           4.6660   -2.4030    0.0000 H       1  UNL1        0.0612
     39 H           5.5321   -1.9030    0.0000 H       1  UNL1        0.0832
     40 H           1.8756   -2.3856    0.0000 H       1  UNL1        0.0238
     41 H           2.1123   -3.2298    0.0000 H       1  UNL1        0.0238
     42 H           2.9566   -2.9931    0.0000 H       1  UNL1        0.0238
     43 H           2.8827   -2.9940    0.0000 H       1  UNL1        0.0238
     44 H           3.7322   -3.2111    0.0000 H       1  UNL1        0.0238
     45 H           3.9494   -2.3616    0.0000 H       1  UNL1        0.0238
     46 H           7.8562    2.0701    0.0000 H       1  UNL1        0.0346
     47 H           7.9419    2.7598    0.0000 H       1  UNL1        0.0235
     48 H           7.3243    3.3821    0.0000 H       1  UNL1        0.0235
     49 H           6.7019    2.7645    0.0000 H       1  UNL1        0.0235
     50 H           7.8701    0.7231    0.0000 H       1  UNL1        0.0235
     51 H           8.7179    0.9467    0.0000 H       1  UNL1        0.0235
     52 H           8.4942    1.7946    0.0000 H       1  UNL1        0.0235
     53 H           4.9841    3.8211    0.0000 H       1  UNL1        0.0660
     54 H           4.1381    3.5909    0.0000 H       1  UNL1        0.0660
     55 H           4.3683    2.7448    0.0000 H       1  UNL1        0.0660
     56 H           6.9541   -3.8199    0.0000 H       1  UNL1        0.0342
     57 H           7.8010   -3.5930    0.0000 H       1  UNL1        0.0342
     58 H           7.5741   -2.7460    0.0000 H       1  UNL1        0.0342
@<TRIPOS>BOND
     1     1    16    1
     2     1    24    1
     3     2    19    2
     4     3    22    1
     5     3    27    1
     6     4    20    2
     7     5    24    2
     8     6     8    1
     9     6     9    1
    10     6    12    1
    11     6    13    1
    12     7     8    1
    13     7    10    1
    14     7    17    1
    15     7    18    1
    16     8    14    2
    17     9    11    1
    18     9    29    1
    19     9    30    1
    20    10    11    1
    21    10    31    1
    22    10    32    1
    23    11    33    1
    24    11    34    1
    25    12    15    2
    26    12    19    1
    27    13    35    1
    28    13    36    1
    29    13    37    1
    30    14    16    1
    31    14    38    1
    32    15    16    1
    33    15    20    1
    34    16    39    1
    35    17    40    1
    36    17    41    1
    37    17    42    1
    38    18    43    1
    39    18    44    1
    40    18    45    1
    41    19    22    1
    42    20    21    1
    43    21    22    2
    44    21    23    1
    45    23    25    1
    46    23    26    1
    47    23    46    1
    48    24    28    1
    49    25    47    1
    50    25    48    1
    51    25    49    1
    52    26    50    1
    53    26    51    1
    54    26    52    1
    55    27    53    1
    56    27    54    1
    57    27    55    1
    58    28    56    1
    59    28    57    1
    60    28    58    1
