@<TRIPOS>MOLECULE
IMPHY011227
 44 46 0 0 0
SMALL
GASTEIGER

@<TRIPOS>ATOM
      1 O           5.4920   -1.1897    0.0000 O.3     1  UNL1       -0.4900
      2 O           5.4804    1.8796    0.0000 O.2     1  UNL1       -0.2914
      3 O           3.7320    1.8450    0.0000 O.3     1  UNL1       -0.5056
      4 O           2.0000   -1.1550    0.0000 O.3     1  UNL1       -0.5060
      5 O          10.7340   -1.1175    0.0000 O.3     1  UNL1       -0.4951
      6 C           6.3981    0.3658    0.0000 C.3     1  UNL1        0.0604
      7 C           7.2622    0.8692    0.0000 C.3     1  UNL1       -0.0147
      8 C           6.3981   -0.6758    0.0000 C.3     1  UNL1        0.0997
      9 C           5.4920    0.8797    0.0000 C.2     1  UNL1        0.1768
     10 C           4.5981    0.3450    0.0000 C.ar    1  UNL1        0.1014
     11 C           4.5981   -0.6550    0.0000 C.ar    1  UNL1        0.1409
     12 C           3.7320   -1.1550    0.0000 C.ar    1  UNL1        0.0337
     13 C           8.1301    0.3725    0.0000 C.ar    1  UNL1       -0.0464
     14 C           3.7320    0.8450    0.0000 C.ar    1  UNL1        0.1372
     15 C           2.8660    0.3450    0.0000 C.ar    1  UNL1        0.0335
     16 C           2.8660   -0.6550    0.0000 C.ar    1  UNL1        0.1296
     17 C           3.7320   -2.1550    0.0000 C.3     1  UNL1       -0.0327
     18 C           8.9942    0.8758    0.0000 C.ar    1  UNL1       -0.0551
     19 C           8.1340   -0.6275    0.0000 C.ar    1  UNL1       -0.0551
     20 C           2.0000    0.8450    0.0000 C.3     1  UNL1       -0.0327
     21 C           9.8622    0.3792    0.0000 C.ar    1  UNL1       -0.0197
     22 C           9.0019   -1.1242    0.0000 C.ar    1  UNL1       -0.0197
     23 C           9.8660   -0.6208    0.0000 C.ar    1  UNL1        0.1201
     24 C          11.5981   -0.6141    0.0000 C.3     1  UNL1        0.0788
     25 H           6.9356    0.0569    0.0000 H       1  UNL1        0.0417
     26 H           7.6589    1.3456    0.0000 H       1  UNL1        0.0321
     27 H           6.8618    1.3426    0.0000 H       1  UNL1        0.0321
     28 H           6.6071   -1.2595    0.0000 H       1  UNL1        0.0704
     29 H           7.0089   -0.5697    0.0000 H       1  UNL1        0.0704
     30 H           3.1120   -2.1550    0.0000 H       1  UNL1        0.0280
     31 H           3.7320   -2.7750    0.0000 H       1  UNL1        0.0280
     32 H           4.3520   -2.1550    0.0000 H       1  UNL1        0.0280
     33 H           8.9918    1.4958    0.0000 H       1  UNL1        0.0621
     34 H           7.5982   -0.9396    0.0000 H       1  UNL1        0.0621
     35 H           2.3100    1.3819    0.0000 H       1  UNL1        0.0280
     36 H           1.4631    1.1550    0.0000 H       1  UNL1        0.0280
     37 H           1.6900    0.3081    0.0000 H       1  UNL1        0.0280
     38 H          10.3979    0.6912    0.0000 H       1  UNL1        0.0654
     39 H           9.0043   -1.7442    0.0000 H       1  UNL1        0.0654
     40 H           3.1951    2.1550    0.0000 H       1  UNL1        0.2922
     41 H           2.0000   -1.7750    0.0000 H       1  UNL1        0.2922
     42 H          11.9101   -1.1499    0.0000 H       1  UNL1        0.0660
     43 H          12.1338   -0.3021    0.0000 H       1  UNL1        0.0660
     44 H          11.2860   -0.0784    0.0000 H       1  UNL1        0.0660
@<TRIPOS>BOND
     1     1     8    1
     2     1    11    1
     3     2     9    2
     4     3    14    1
     5     3    40    1
     6     4    16    1
     7     4    41    1
     8     5    23    1
     9     5    24    1
    10     6     7    1
    11     6     8    1
    12     6     9    1
    13     6    25    1
    14     7    13    1
    15     7    26    1
    16     7    27    1
    17     8    28    1
    18     8    29    1
    19     9    10    1
    20    10    11   ar
    21    10    14   ar
    22    11    12   ar
    23    12    16   ar
    24    12    17    1
    25    13    18   ar
    26    13    19   ar
    27    14    15   ar
    28    15    16   ar
    29    15    20    1
    30    17    30    1
    31    17    31    1
    32    17    32    1
    33    18    21   ar
    34    18    33    1
    35    19    22   ar
    36    19    34    1
    37    20    35    1
    38    20    36    1
    39    20    37    1
    40    21    23   ar
    41    21    38    1
    42    22    23   ar
    43    22    39    1
    44    24    42    1
    45    24    43    1
    46    24    44    1
