@<TRIPOS>MOLECULE
IMPHY017094
 25 26 0 0 0
SMALL
GASTEIGER

@<TRIPOS>ATOM
      1 O           2.0000   -1.7209    0.0000 O.2     1  UNL1       -0.2971
      2 C           3.7953   -0.2226    0.0000 C.3     1  UNL1        0.0269
      3 C           5.1943   -0.7314    0.0000 C.3     1  UNL1       -0.0044
      4 C           4.0541    0.7433    0.0000 C.3     1  UNL1       -0.0123
      5 C           3.3175    1.7259    0.0000 C.3     1  UNL1       -0.0358
      6 C           5.4531    0.2345    0.0000 C.2     1  UNL1       -0.0668
      7 C           2.0806    0.1251    0.0000 C.3     1  UNL1        0.0127
      8 C           2.4226   -0.8146    0.0000 C.2     1  UNL1        0.1378
      9 C           6.1078   -1.1382    0.0000 C.3     1  UNL1       -0.0554
     10 C           5.0897   -1.7259    0.0000 C.3     1  UNL1       -0.0554
     11 C           6.3191    0.7345    0.0000 C.2     1  UNL1       -0.0986
     12 H           3.8134   -0.8423    0.0000 H       1  UNL1        0.0386
     13 H           4.0401    0.1235    0.0000 H       1  UNL1        0.0350
     14 H           3.6353    2.2583    0.0000 H       1  UNL1        0.0278
     15 H           2.7044    1.8179    0.0000 H       1  UNL1        0.0278
     16 H           1.8863    0.7138    0.0000 H       1  UNL1        0.0347
     17 H           1.4948   -0.0781    0.0000 H       1  UNL1        0.0347
     18 H           5.8556   -1.7046    0.0000 H       1  UNL1        0.0238
     19 H           6.6742   -1.3903    0.0000 H       1  UNL1        0.0238
     20 H           6.3600   -0.5718    0.0000 H       1  UNL1        0.0238
     21 H           4.4731   -1.6611    0.0000 H       1  UNL1        0.0238
     22 H           5.0249   -2.3425    0.0000 H       1  UNL1        0.0238
     23 H           5.7063   -1.7908    0.0000 H       1  UNL1        0.0238
     24 H           6.8560    0.4245    0.0000 H       1  UNL1        0.0535
     25 H           6.3191    1.3545    0.0000 H       1  UNL1        0.0535
@<TRIPOS>BOND
     1     1     8    2
     2     2     3    1
     3     2     5    1
     4     2     8    1
     5     2    12    1
     6     3     6    1
     7     3     9    1
     8     3    10    1
     9     4     5    1
    10     4     6    1
    11     4     7    1
    12     4    13    1
    13     5    14    1
    14     5    15    1
    15     6    11    2
    16     7     8    1
    17     7    16    1
    18     7    17    1
    19     9    18    1
    20     9    19    1
    21     9    20    1
    22    10    21    1
    23    10    22    1
    24    10    23    1
    25    11    24    1
    26    11    25    1
