@<TRIPOS>MOLECULE
IMPHY006684
 27 29 0 0 0
SMALL
GASTEIGER

@<TRIPOS>ATOM
      1 O           4.6660   -1.7327    0.0000 O.2     1  UNL1       -0.4621
      2 O           4.6660    1.2673    0.0000 O.2     1  UNL1       -0.2864
      3 C           5.5321   -0.2327    0.0000 C.ar    1  UNL1        0.0643
      4 C           3.8000   -0.2327    0.0000 C.ar    1  UNL1        0.0645
      5 C           4.6660    0.2673    0.0000 C.ar    1  UNL1        0.2001
      6 C           3.8000   -1.2327    0.0000 C.ar    1  UNL1        0.1384
      7 C           6.3981    0.2673    0.0000 C.ar    1  UNL1       -0.0113
      8 C           5.5321   -1.2327    0.0000 C.ar    1  UNL1        0.1038
      9 C           2.9061    0.3020    0.0000 C.ar    1  UNL1       -0.0474
     10 C           2.9061   -1.7673    0.0000 C.ar    1  UNL1       -0.0186
     11 C           7.2641   -0.2327    0.0000 C.ar    1  UNL1       -0.0538
     12 C           6.3981    1.2673    0.0000 C.ar    1  UNL1       -0.0538
     13 C           2.0000   -0.2119    0.0000 C.ar    1  UNL1       -0.0609
     14 C           2.0000   -1.2535    0.0000 C.ar    1  UNL1       -0.0582
     15 C           8.1301    0.2673    0.0000 C.ar    1  UNL1       -0.0612
     16 C           7.2641    1.7673    0.0000 C.ar    1  UNL1       -0.0612
     17 C           8.1301    1.2673    0.0000 C.ar    1  UNL1       -0.0617
     18 H           6.0690   -1.5427    0.0000 H       1  UNL1        0.1037
     19 H           2.9132    0.9220    0.0000 H       1  UNL1        0.0626
     20 H           2.9132   -2.3873    0.0000 H       1  UNL1        0.0654
     21 H           7.2641   -0.8527    0.0000 H       1  UNL1        0.0624
     22 H           5.8612    1.5773    0.0000 H       1  UNL1        0.0624
     23 H           1.4643    0.1002    0.0000 H       1  UNL1        0.0618
     24 H           1.4643   -1.5656    0.0000 H       1  UNL1        0.0619
     25 H           8.6671   -0.0427    0.0000 H       1  UNL1        0.0618
     26 H           7.2641    2.3873    0.0000 H       1  UNL1        0.0618
     27 H           8.6671    1.5773    0.0000 H       1  UNL1        0.0618
@<TRIPOS>BOND
     1     1     6   ar
     2     1     8   ar
     3     2     5    2
     4     3     5   ar
     5     3     7    1
     6     3     8   ar
     7     4     5   ar
     8     4     6   ar
     9     4     9   ar
    10     6    10   ar
    11     7    11   ar
    12     7    12   ar
    13     8    18    1
    14     9    13   ar
    15     9    19    1
    16    10    14   ar
    17    10    20    1
    18    11    15   ar
    19    11    21    1
    20    12    16   ar
    21    12    22    1
    22    13    14   ar
    23    13    23    1
    24    14    24    1
    25    15    17   ar
    26    15    25    1
    27    16    17   ar
    28    16    26    1
    29    17    27    1
