@<TRIPOS>MOLECULE
IMPHY008487
 49 50 0 0 0
SMALL
GASTEIGER

@<TRIPOS>ATOM
      1 O           5.4641   -0.7673    0.0000 O.3     1  UNL1       -0.4637
      2 O           6.3580    1.6980    0.0000 O.2     1  UNL1       -0.4217
      3 O           2.8660    1.7327    0.0000 O.3     1  UNL1       -0.4947
      4 O           7.1962   -0.7673    0.0000 O.2     1  UNL1       -0.2508
      5 O           8.1282    1.7085    0.0000 O.2     1  UNL1       -0.2452
      6 C           4.5981    0.7327    0.0000 C.3     1  UNL1        0.0459
      7 C           4.5981    1.7327    0.0000 C.ar    1  UNL1        0.0474
      8 C           5.4641    0.2327    0.0000 C.3     1  UNL1        0.1031
      9 C           3.7320    0.2327    0.0000 C.2     1  UNL1       -0.0689
     10 C           5.4641    2.2327    0.0000 C.ar    1  UNL1        0.1464
     11 C           3.7320    2.2327    0.0000 C.ar    1  UNL1        0.1275
     12 C           7.1962   -2.7673    0.0000 C.3     1  UNL1       -0.0367
     13 C           5.4641    3.2327    0.0000 C.ar    1  UNL1        0.0181
     14 C           6.3301   -2.2673    0.0000 C.3     1  UNL1        0.0473
     15 C           3.7320    3.2327    0.0000 C.ar    1  UNL1       -0.0189
     16 C           4.5981    3.7327    0.0000 C.ar    1  UNL1       -0.0476
     17 C           3.7320   -0.7673    0.0000 C.3     1  UNL1       -0.0434
     18 C           6.3301   -1.2673    0.0000 C.2     1  UNL1        0.3074
     19 C           7.1962   -3.7673    0.0000 C.3     1  UNL1       -0.0622
     20 C           8.0622   -2.2673    0.0000 C.3     1  UNL1       -0.0622
     21 C           6.3580    3.7673    0.0000 C.ar    1  UNL1       -0.0443
     22 C           2.8660    0.7327    0.0000 C.2     1  UNL1       -0.0990
     23 C           7.2641    3.2535    0.0000 C.ar    1  UNL1        0.0236
     24 C           7.2641    2.2118    0.0000 C.ar    1  UNL1        0.3372
     25 C           2.0000    2.2327    0.0000 C.3     1  UNL1        0.0788
     26 H           4.5981    0.1127    0.0000 H       1  UNL1        0.0429
     27 H           6.0747    0.1250    0.0000 H       1  UNL1        0.0707
     28 H           5.6762    0.8153    0.0000 H       1  UNL1        0.0707
     29 H           6.6592   -3.0773    0.0000 H       1  UNL1        0.0301
     30 H           5.7196   -2.1597    0.0000 H       1  UNL1        0.0380
     31 H           6.1181   -2.8499    0.0000 H       1  UNL1        0.0380
     32 H           3.1951    3.5427    0.0000 H       1  UNL1        0.0654
     33 H           4.5981    4.3527    0.0000 H       1  UNL1        0.0626
     34 H           3.1120   -0.7673    0.0000 H       1  UNL1        0.0274
     35 H           3.7320   -1.3873    0.0000 H       1  UNL1        0.0274
     36 H           4.3520   -0.7673    0.0000 H       1  UNL1        0.0274
     37 H           6.5762   -3.7673    0.0000 H       1  UNL1        0.0232
     38 H           7.1962   -4.3873    0.0000 H       1  UNL1        0.0232
     39 H           8.3722   -2.8043    0.0000 H       1  UNL1        0.0232
     40 H           8.5991   -1.9573    0.0000 H       1  UNL1        0.0232
     41 H           7.7522   -1.7304    0.0000 H       1  UNL1        0.0232
     42 H           7.8162   -3.7673    0.0000 H       1  UNL1        0.0232
     43 H           6.3509    4.3873    0.0000 H       1  UNL1        0.0627
     44 H           2.8660    1.3527    0.0000 H       1  UNL1        0.0535
     45 H           2.3291    0.4227    0.0000 H       1  UNL1        0.0535
     46 H           7.7998    3.5656    0.0000 H       1  UNL1        0.0689
     47 H           2.3100    2.7696    0.0000 H       1  UNL1        0.0660
     48 H           1.4631    2.5427    0.0000 H       1  UNL1        0.0660
     49 H           1.6900    1.6957    0.0000 H       1  UNL1        0.0660
@<TRIPOS>BOND
     1     1     8    1
     2     1    18    1
     3     2    10   ar
     4     2    24   ar
     5     3    11    1
     6     3    25    1
     7     4    18    2
     8     5    24    2
     9     6     7    1
    10     6     8    1
    11     6     9    1
    12     6    26    1
    13     7    10   ar
    14     7    11   ar
    15     8    27    1
    16     8    28    1
    17     9    17    1
    18     9    22    2
    19    10    13   ar
    20    11    15   ar
    21    12    14    1
    22    12    19    1
    23    12    20    1
    24    12    29    1
    25    13    16   ar
    26    13    21   ar
    27    14    18    1
    28    14    30    1
    29    14    31    1
    30    15    16   ar
    31    15    32    1
    32    16    33    1
    33    17    34    1
    34    17    35    1
    35    17    36    1
    36    19    37    1
    37    19    38    1
    38    19    42    1
    39    20    39    1
    40    20    40    1
    41    20    41    1
    42    21    23   ar
    43    21    43    1
    44    22    44    1
    45    22    45    1
    46    23    24   ar
    47    23    46    1
    48    25    47    1
    49    25    48    1
    50    25    49    1
