@<TRIPOS>MOLECULE
IMPHY007249
 29 31 0 0 0
SMALL
GASTEIGER

@<TRIPOS>ATOM
      1 N           6.3301    0.2500    0.0000 N.ar    1  UNL1       -0.2549
      2 N           2.0000    1.7500    0.0000 N.ar    1  UNL1       -0.2627
      3 N           6.3301   -2.7500    0.0000 N.ar    1  UNL1       -0.2626
      4 C           4.5981    1.2500    0.0000 C.ar    1  UNL1       -0.0130
      5 C           5.4641   -0.2500    0.0000 C.ar    1  UNL1        0.0730
      6 C           4.5981    0.2500    0.0000 C.ar    1  UNL1       -0.0279
      7 C           3.7320    1.7500    0.0000 C.ar    1  UNL1        0.0003
      8 C           5.4641   -1.2500    0.0000 C.ar    1  UNL1        0.0184
      9 C           5.4641    1.7500    0.0000 C.ar    1  UNL1       -0.0358
     10 C           3.7320    2.7500    0.0000 C.ar    1  UNL1       -0.0512
     11 C           6.3301    1.2500    0.0000 C.ar    1  UNL1        0.0288
     12 C           4.5981   -1.7500    0.0000 C.ar    1  UNL1       -0.0497
     13 C           2.8660    1.2500    0.0000 C.ar    1  UNL1        0.0353
     14 C           6.3301   -1.7500    0.0000 C.ar    1  UNL1        0.0367
     15 C           2.8660    3.2500    0.0000 C.ar    1  UNL1       -0.0430
     16 C           4.5981   -2.7500    0.0000 C.ar    1  UNL1       -0.0430
     17 C           2.0000    2.7500    0.0000 C.ar    1  UNL1        0.0276
     18 C           5.4641   -3.2500    0.0000 C.ar    1  UNL1        0.0276
     19 H           4.0611   -0.0600    0.0000 H       1  UNL1        0.0645
     20 H           5.4641    2.3700    0.0000 H       1  UNL1        0.0639
     21 H           4.2690    3.0600    0.0000 H       1  UNL1        0.0625
     22 H           6.8671    1.5600    0.0000 H       1  UNL1        0.0830
     23 H           4.0611   -1.4400    0.0000 H       1  UNL1        0.0625
     24 H           2.8660    0.6300    0.0000 H       1  UNL1        0.0836
     25 H           6.8671   -1.4400    0.0000 H       1  UNL1        0.0836
     26 H           2.8660    3.8700    0.0000 H       1  UNL1        0.0633
     27 H           4.0611   -3.0600    0.0000 H       1  UNL1        0.0633
     28 H           1.4631    3.0600    0.0000 H       1  UNL1        0.0829
     29 H           5.4641   -3.8700    0.0000 H       1  UNL1        0.0829
@<TRIPOS>BOND
     1     1     5   ar
     2     1    11   ar
     3     2    13   ar
     4     2    17   ar
     5     3    14   ar
     6     3    18   ar
     7     4     6   ar
     8     4     7    1
     9     4     9   ar
    10     5     6   ar
    11     5     8    1
    12     6    19    1
    13     7    10   ar
    14     7    13   ar
    15     8    12   ar
    16     8    14   ar
    17     9    11   ar
    18     9    20    1
    19    10    15   ar
    20    10    21    1
    21    11    22    1
    22    12    16   ar
    23    12    23    1
    24    13    24    1
    25    14    25    1
    26    15    17   ar
    27    15    26    1
    28    16    18   ar
    29    16    27    1
    30    17    28    1
    31    18    29    1
