@<TRIPOS>MOLECULE
IMPHY004614
 30 32 0 0 0
SMALL
GASTEIGER

@<TRIPOS>ATOM
      1 O           6.0812    0.3182    0.0000 O.3     1  UNL1       -0.4513
      2 O           6.3919    2.8781    0.0000 O.2     1  UNL1       -0.2832
      3 O           2.5369    0.1229    0.0000 O.3     1  UNL1       -0.5066
      4 O           7.6648   -2.3412    0.0000 O.3     1  UNL1       -0.5033
      5 O           9.6648   -2.3412    0.0000 O.3     1  UNL1       -0.5033
      6 C           5.1350    1.6229    0.0000 C.ar    1  UNL1        0.0678
      7 C           5.1350    0.6229    0.0000 C.ar    1  UNL1        0.1430
      8 C           6.6648    1.1229    0.0000 C.2     1  UNL1        0.1761
      9 C           6.0812    1.9276    0.0000 C.2     1  UNL1        0.2315
     10 C           7.6648    1.1229    0.0000 C.2     1  UNL1       -0.0082
     11 C           8.1648    0.2569    0.0000 C.ar    1  UNL1       -0.0178
     12 C           4.2690    2.1229    0.0000 C.ar    1  UNL1       -0.0438
     13 C           4.2690    0.1229    0.0000 C.ar    1  UNL1        0.0229
     14 C           3.4030    0.6229    0.0000 C.ar    1  UNL1        0.1204
     15 C           3.4030    1.6229    0.0000 C.ar    1  UNL1       -0.0193
     16 C           7.6648   -0.6092    0.0000 C.ar    1  UNL1       -0.0093
     17 C           9.1648    0.2569    0.0000 C.ar    1  UNL1       -0.0508
     18 C           8.1648   -1.4752    0.0000 C.ar    1  UNL1        0.1588
     19 C           9.6648   -0.6092    0.0000 C.ar    1  UNL1       -0.0160
     20 C           9.1648   -1.4752    0.0000 C.ar    1  UNL1        0.1582
     21 H           7.9748    1.6598    0.0000 H       1  UNL1        0.0661
     22 H           4.2690    2.7429    0.0000 H       1  UNL1        0.0627
     23 H           4.2690   -0.4971    0.0000 H       1  UNL1        0.0691
     24 H           2.8660    1.9329    0.0000 H       1  UNL1        0.0654
     25 H           7.0448   -0.6092    0.0000 H       1  UNL1        0.0661
     26 H           9.4748    0.7938    0.0000 H       1  UNL1        0.0625
     27 H          10.2848   -0.6092    0.0000 H       1  UNL1        0.0655
     28 H           2.0000    0.4329    0.0000 H       1  UNL1        0.2921
     29 H           7.9748   -2.8781    0.0000 H       1  UNL1        0.2923
     30 H          10.2848   -2.3412    0.0000 H       1  UNL1        0.2923
@<TRIPOS>BOND
     1     1     7    1
     2     1     8    1
     3     2     9    2
     4     3    14    1
     5     3    28    1
     6     4    18    1
     7     4    29    1
     8     5    20    1
     9     5    30    1
    10     6     7   ar
    11     6     9    1
    12     6    12   ar
    13     7    13   ar
    14     8     9    1
    15     8    10    2
    16    10    11    1
    17    10    21    1
    18    11    16   ar
    19    11    17   ar
    20    12    15   ar
    21    12    22    1
    22    13    14   ar
    23    13    23    1
    24    14    15   ar
    25    15    24    1
    26    16    18   ar
    27    16    25    1
    28    17    19   ar
    29    17    26    1
    30    18    20   ar
    31    19    20   ar
    32    19    27    1
