@<TRIPOS>MOLECULE
IMPHY010219
 114 121 0 0 0
SMALL
GASTEIGER

@<TRIPOS>ATOM
      1 O           8.2902    6.2903    0.0000 O.3     1  UNL1       -0.3553
      2 O           6.8671   -1.9538    0.0000 O.3     1  UNL1       -0.3451
      3 O           5.1350   -1.9538    0.0000 O.3     1  UNL1       -0.3431
      4 O           6.8671   -3.9538    0.0000 O.3     1  UNL1       -0.3841
      5 O           5.1350   -4.9538    0.0000 O.3     1  UNL1       -0.3685
      6 O           3.4030   -3.9538    0.0000 O.3     1  UNL1       -0.3866
      7 O           3.4030   -6.9538    0.0000 O.3     1  UNL1       -0.3407
      8 O           6.0010   -6.4538    0.0000 O.3     1  UNL1       -0.3865
      9 O           6.0010   -8.4538    0.0000 O.3     1  UNL1       -0.3864
     10 O           4.2690   -9.4538    0.0000 O.3     1  UNL1       -0.3841
     11 O           2.5369   -8.4538    0.0000 O.3     1  UNL1       -0.3649
     12 N           8.2397    7.3713    0.0000 N.3     1  UNL1       -0.2885
     13 C           6.8963    4.2431    0.0000 C.3     1  UNL1       -0.0233
     14 C           7.7643    3.7465    0.0000 C.3     1  UNL1       -0.0296
     15 C           7.1018    5.2157    0.0000 C.3     1  UNL1       -0.0025
     16 C           7.7681    2.7465    0.0000 C.3     1  UNL1       -0.0306
     17 C           8.0901    5.3226    0.0000 C.3     1  UNL1        0.0649
     18 C           6.9040    2.2431    0.0000 C.3     1  UNL1       -0.0285
     19 C           8.4987    4.4164    0.0000 C.3     1  UNL1       -0.0226
     20 C           6.6995    6.1183    0.0000 C.3     1  UNL1        0.0046
     21 C           6.0322    3.7398    0.0000 C.3     1  UNL1       -0.0467
     22 C           6.0361    2.7398    0.0000 C.3     1  UNL1       -0.0486
     23 C           7.4324    6.7811    0.0000 C.3     1  UNL1        0.1239
     24 C           6.8920    1.2016    0.0000 C.3     1  UNL1       -0.0078
     25 C           6.0284    4.7398    0.0000 C.3     1  UNL1       -0.0590
     26 C           8.6801    2.2431    0.0000 C.3     1  UNL1       -0.0311
     27 C           7.7920    0.6773    0.0000 C.2     1  UNL1       -0.0648
     28 C           6.5177    7.1851    0.0000 C.3     1  UNL1       -0.0095
     29 C           5.9421    0.6773    0.0000 C.3     1  UNL1       -0.0413
     30 C           5.7211    6.3250    0.0000 C.3     1  UNL1       -0.0582
     31 C           8.6921    1.2016    0.0000 C.2     1  UNL1       -0.0839
     32 C           6.0279    1.7049    0.0000 C.3     1  UNL1       -0.0556
     33 C           7.8046   -0.4076    0.0000 C.3     1  UNL1       -0.0047
     34 C           5.9295   -0.4076    0.0000 C.3     1  UNL1       -0.0254
     35 C           6.4102    8.1793    0.0000 C.3     1  UNL1       -0.0454
     36 C           6.8671   -0.9537    0.0000 C.3     1  UNL1        0.0655
     37 C           8.1322    8.3655    0.0000 C.3     1  UNL1        0.0010
     38 C           7.2174    8.7695    0.0000 C.3     1  UNL1       -0.0311
     39 C           7.1100    9.7638    0.0000 C.3     1  UNL1       -0.0613
     40 C           6.0010   -2.4538    0.0000 C.3     1  UNL1        0.1881
     41 C           6.0010   -3.4538    0.0000 C.3     1  UNL1        0.1344
     42 C           5.1350   -3.9538    0.0000 C.3     1  UNL1        0.1175
     43 C           4.2690   -2.4538    0.0000 C.3     1  UNL1        0.0873
     44 C           4.2690   -3.4538    0.0000 C.3     1  UNL1        0.1097
     45 C           3.4030   -1.9538    0.0000 C.3     1  UNL1       -0.0361
     46 C           4.2690   -5.4538    0.0000 C.3     1  UNL1        0.0770
     47 C           4.2690   -6.4538    0.0000 C.3     1  UNL1        0.1133
     48 C           5.1350   -6.9538    0.0000 C.3     1  UNL1        0.1119
     49 C           5.1350   -7.9538    0.0000 C.3     1  UNL1        0.1141
     50 C           4.2690   -8.4538    0.0000 C.3     1  UNL1        0.1339
     51 C           3.4030   -7.9538    0.0000 C.3     1  UNL1        0.1854
     52 H           8.5426    3.4048    0.0000 H       1  UNL1        0.0310
     53 H           6.2565    5.1262    0.0000 H       1  UNL1        0.0335
     54 H           8.4993    3.1800    0.0000 H       1  UNL1        0.0310
     55 H           8.9350    5.4158    0.0000 H       1  UNL1        0.0600
     56 H           7.6385    1.8153    0.0000 H       1  UNL1        0.0312
     57 H           8.8661    3.9170    0.0000 H       1  UNL1        0.0293
     58 H           9.0340    4.7292    0.0000 H       1  UNL1        0.0293
     59 H           6.3097    5.6362    0.0000 H       1  UNL1        0.0343
     60 H           5.8179    4.3216    0.0000 H       1  UNL1        0.0271
     61 H           5.4221    3.6298    0.0000 H       1  UNL1        0.0271
     62 H           5.4251    2.8451    0.0000 H       1  UNL1        0.0268
     63 H           5.8263    2.1564    0.0000 H       1  UNL1        0.0268
     64 H           6.3363    5.2779    0.0000 H       1  UNL1        0.0235
     65 H           5.4902    5.0477    0.0000 H       1  UNL1        0.0235
     66 H           5.7204    4.2017    0.0000 H       1  UNL1        0.0235
     67 H           9.2921    2.1441    0.0000 H       1  UNL1        0.0310
     68 H           8.8824    2.8292    0.0000 H       1  UNL1        0.0310
     69 H           5.8991    7.2265    0.0000 H       1  UNL1        0.0306
     70 H           6.3695    6.5831    0.0000 H       1  UNL1        0.0306
     71 H           5.7398    1.2634    0.0000 H       1  UNL1        0.0274
     72 H           5.3300    0.5783    0.0000 H       1  UNL1        0.0274
     73 H           5.8492    6.9316    0.0000 H       1  UNL1        0.0234
     74 H           5.1145    6.4532    0.0000 H       1  UNL1        0.0234
     75 H           5.5929    5.7184    0.0000 H       1  UNL1        0.0234
     76 H           9.2314    0.8957    0.0000 H       1  UNL1        0.0572
     77 H           8.8069    7.1208    0.0000 H       1  UNL1        0.1246
     78 H           6.3400    2.2406    0.0000 H       1  UNL1        0.0238
     79 H           5.4922    2.0170    0.0000 H       1  UNL1        0.0238
     80 H           5.7158    1.1692    0.0000 H       1  UNL1        0.0238
     81 H           8.0204   -0.9889    0.0000 H       1  UNL1        0.0335
     82 H           8.4142   -0.2945    0.0000 H       1  UNL1        0.0335
     83 H           5.3199   -0.2945    0.0000 H       1  UNL1        0.0290
     84 H           5.7137   -0.9889    0.0000 H       1  UNL1        0.0290
     85 H           6.1367    8.7358    0.0000 H       1  UNL1        0.0270
     86 H           5.8147    8.0067    0.0000 H       1  UNL1        0.0270
     87 H           6.3295   -1.2627    0.0000 H       1  UNL1        0.0600
     88 H           8.7508    8.3241    0.0000 H       1  UNL1        0.0427
     89 H           8.2804    8.9676    0.0000 H       1  UNL1        0.0427
     90 H           6.6503    9.0200    0.0000 H       1  UNL1        0.0310
     91 H           7.7264    9.8304    0.0000 H       1  UNL1        0.0233
     92 H           7.0433   10.3802    0.0000 H       1  UNL1        0.0233
     93 H           6.4935    9.6971    0.0000 H       1  UNL1        0.0233
     94 H           6.0010   -1.8338    0.0000 H       1  UNL1        0.0937
     95 H           6.0010   -4.0738    0.0000 H       1  UNL1        0.0671
     96 H           4.5981   -4.2638    0.0000 H       1  UNL1        0.0650
     97 H           4.2690   -1.8338    0.0000 H       1  UNL1        0.0621
     98 H           4.2690   -4.0738    0.0000 H       1  UNL1        0.0646
     99 H           6.8671   -4.5738    0.0000 H       1  UNL1        0.2101
    100 H           3.7130   -1.4168    0.0000 H       1  UNL1        0.0255
    101 H           2.8660   -1.6438    0.0000 H       1  UNL1        0.0255
    102 H           3.0930   -2.4907    0.0000 H       1  UNL1        0.0255
    103 H           2.8660   -3.6438    0.0000 H       1  UNL1        0.2100
    104 H           4.0569   -4.8711    0.0000 H       1  UNL1        0.0587
    105 H           3.6584   -5.5614    0.0000 H       1  UNL1        0.0587
    106 H           3.7320   -6.1438    0.0000 H       1  UNL1        0.0647
    107 H           5.1350   -6.3338    0.0000 H       1  UNL1        0.0647
    108 H           5.6720   -7.6438    0.0000 H       1  UNL1        0.0648
    109 H           4.8059   -8.7638    0.0000 H       1  UNL1        0.0671
    110 H           3.4030   -8.5738    0.0000 H       1  UNL1        0.0935
    111 H           6.5380   -6.7638    0.0000 H       1  UNL1        0.2100
    112 H           6.0010   -9.0738    0.0000 H       1  UNL1        0.2100
    113 H           3.7320   -9.7638    0.0000 H       1  UNL1        0.2101
    114 H           2.0000   -8.1438    0.0000 H       1  UNL1        0.2126
@<TRIPOS>BOND
     1     1    17    1
     2    23     1    1
     3    36     2    1
     4    40     2    1
     5     3    40    1
     6     3    43    1
     7    41     4    1
     8     4    99    1
     9    42     5    1
    10     5    46    1
    11    44     6    1
    12     6   103    1
    13     7    47    1
    14     7    51    1
    15    48     8    1
    16     8   111    1
    17    49     9    1
    18     9   112    1
    19    50    10    1
    20    10   113    1
    21    51    11    1
    22    11   114    1
    23    12    23    1
    24    12    37    1
    25    12    77    1
    26    13    14    1
    27    13    15    1
    28    13    21    1
    29    13    25    1
    30    14    16    1
    31    14    19    1
    32    14    52    1
    33    15    17    1
    34    15    20    1
    35    15    53    1
    36    16    18    1
    37    16    26    1
    38    16    54    1
    39    17    19    1
    40    17    55    1
    41    18    22    1
    42    18    24    1
    43    18    56    1
    44    19    57    1
    45    19    58    1
    46    20    23    1
    47    20    30    1
    48    20    59    1
    49    21    22    1
    50    21    60    1
    51    21    61    1
    52    22    62    1
    53    22    63    1
    54    23    28    1
    55    24    27    1
    56    24    29    1
    57    24    32    1
    58    25    64    1
    59    25    65    1
    60    25    66    1
    61    26    31    1
    62    26    67    1
    63    26    68    1
    64    27    31    2
    65    27    33    1
    66    28    35    1
    67    28    69    1
    68    28    70    1
    69    29    34    1
    70    29    71    1
    71    29    72    1
    72    30    73    1
    73    30    74    1
    74    30    75    1
    75    31    76    1
    76    32    78    1
    77    32    79    1
    78    32    80    1
    79    33    36    1
    80    33    81    1
    81    33    82    1
    82    34    36    1
    83    34    83    1
    84    34    84    1
    85    35    38    1
    86    35    85    1
    87    35    86    1
    88    36    87    1
    89    37    38    1
    90    37    88    1
    91    37    89    1
    92    38    39    1
    93    38    90    1
    94    39    91    1
    95    39    92    1
    96    39    93    1
    97    40    41    1
    98    40    94    1
    99    41    42    1
   100    41    95    1
   101    42    44    1
   102    42    96    1
   103    43    44    1
   104    43    45    1
   105    43    97    1
   106    44    98    1
   107    45   100    1
   108    45   101    1
   109    45   102    1
   110    47    46    1
   111    46   104    1
   112    46   105    1
   113    47    48    1
   114    47   106    1
   115    48    49    1
   116    48   107    1
   117    49    50    1
   118    49   108    1
   119    50    51    1
   120    50   109    1
   121    51   110    1
