@<TRIPOS>MOLECULE
IMPHY001050
 42 43 0 0 0
SMALL
GASTEIGER

@<TRIPOS>ATOM
      1 O           5.1831    0.9987    0.0000 O.3     1  UNL1       -0.3877
      2 C           5.1881   -0.0012    0.0000 C.3     1  UNL1        0.0750
      3 C           5.1931   -1.0012    0.0000 C.3     1  UNL1        0.0004
      4 C           6.1328    0.3082    0.0000 C.3     1  UNL1       -0.0092
      5 C           6.1408   -1.3012    0.0000 C.3     1  UNL1       -0.0444
      6 C           6.7204   -0.4936    0.0000 C.3     1  UNL1       -0.0468
      7 C           4.4032    0.6183    0.0000 C.3     1  UNL1       -0.0195
      8 C           4.4144   -1.6286    0.0000 C.3     1  UNL1       -0.0265
      9 C           6.4387    1.2603    0.0000 C.3     1  UNL1       -0.0413
     10 C           5.1981   -2.0012    0.0000 C.3     1  UNL1       -0.0567
     11 C           3.4294    0.3910    0.0000 C.3     1  UNL1       -0.0294
     12 C           3.4384   -1.4110    0.0000 C.2     1  UNL1       -0.0844
     13 C           3.0000   -0.5122    0.0000 C.2     1  UNL1       -0.0764
     14 C           7.4162    1.4714    0.0000 C.3     1  UNL1       -0.0623
     15 C           5.7672    2.0012    0.0000 C.3     1  UNL1       -0.0623
     16 C           2.0000   -0.5172    0.0000 C.3     1  UNL1       -0.0438
     17 H           6.7448    0.4074    0.0000 H       1  UNL1        0.0331
     18 H           5.8926   -1.8694    0.0000 H       1  UNL1        0.0272
     19 H           6.6797   -1.6078    0.0000 H       1  UNL1        0.0272
     20 H           7.1833   -0.9060    0.0000 H       1  UNL1        0.0269
     21 H           7.1792   -0.0766    0.0000 H       1  UNL1        0.0269
     22 H           4.8860    1.0073    0.0000 H       1  UNL1        0.0296
     23 H           4.1314    1.1756    0.0000 H       1  UNL1        0.0296
     24 H           4.1482   -2.1886    0.0000 H       1  UNL1        0.0314
     25 H           4.9010   -2.0128    0.0000 H       1  UNL1        0.0314
     26 H           6.6284    1.8505    0.0000 H       1  UNL1        0.0299
     27 H           4.5781   -2.0043    0.0000 H       1  UNL1        0.0236
     28 H           5.2012   -2.6212    0.0000 H       1  UNL1        0.0236
     29 H           5.8181   -1.9981    0.0000 H       1  UNL1        0.0236
     30 H           3.4263    1.0110    0.0000 H       1  UNL1        0.0311
     31 H           2.8242    0.5259    0.0000 H       1  UNL1        0.0311
     32 H           4.6447    1.3061    0.0000 H       1  UNL1        0.2102
     33 H           3.0542   -1.8976    0.0000 H       1  UNL1        0.0572
     34 H           7.5471    0.8653    0.0000 H       1  UNL1        0.0232
     35 H           8.0222    1.6022    0.0000 H       1  UNL1        0.0232
     36 H           7.2853    2.0774    0.0000 H       1  UNL1        0.0232
     37 H           6.2266    2.4176    0.0000 H       1  UNL1        0.0232
     38 H           5.3508    2.4606    0.0000 H       1  UNL1        0.0232
     39 H           5.3078    1.5849    0.0000 H       1  UNL1        0.0232
     40 H           1.9969    0.1028    0.0000 H       1  UNL1        0.0274
     41 H           1.3800   -0.5202    0.0000 H       1  UNL1        0.0274
     42 H           2.0031   -1.1371    0.0000 H       1  UNL1        0.0274
@<TRIPOS>BOND
     1     2     1    1
     2     1    32    1
     3     2     3    1
     4     2     4    1
     5     2     7    1
     6     3     5    1
     7     3     8    1
     8     3    10    1
     9     4     6    1
    10     4     9    1
    11     4    17    1
    12     5     6    1
    13     5    18    1
    14     5    19    1
    15     6    20    1
    16     6    21    1
    17     7    11    1
    18     7    22    1
    19     7    23    1
    20     8    12    1
    21     8    24    1
    22     8    25    1
    23     9    14    1
    24     9    15    1
    25     9    26    1
    26    10    27    1
    27    10    28    1
    28    10    29    1
    29    11    13    1
    30    11    30    1
    31    11    31    1
    32    12    13    2
    33    12    33    1
    34    13    16    1
    35    14    34    1
    36    14    35    1
    37    14    36    1
    38    15    37    1
    39    15    38    1
    40    15    39    1
    41    16    40    1
    42    16    41    1
    43    16    42    1
