@<TRIPOS>MOLECULE
IMPHY016449
 29 30 0 0 0
SMALL
GASTEIGER

@<TRIPOS>ATOM
      1 O           4.9889    1.7552    0.0000 O.2     1  UNL1       -0.2916
      2 O           2.8660   -2.0000    0.0000 O.3     1  UNL1       -0.4948
      3 O           2.8660    2.0000    0.0000 O.3     1  UNL1       -0.4944
      4 C           5.2619    0.0000    0.0000 C.3     1  UNL1        0.0235
      5 C           4.6783   -0.8047    0.0000 C.3     1  UNL1       -0.0138
      6 C           3.7320   -0.5000    0.0000 C.ar    1  UNL1        0.0089
      7 C           3.7320    0.5000    0.0000 C.ar    1  UNL1        0.0659
      8 C           4.6783    0.8047    0.0000 C.2     1  UNL1        0.1701
      9 C           6.2619    0.0000    0.0000 C.3     1  UNL1       -0.0551
     10 C           2.8660   -1.0000    0.0000 C.ar    1  UNL1        0.1242
     11 C           2.8660    1.0000    0.0000 C.ar    1  UNL1        0.1310
     12 C           2.0000   -0.5000    0.0000 C.ar    1  UNL1       -0.0162
     13 C           2.0000    0.5000    0.0000 C.ar    1  UNL1       -0.0158
     14 C           2.0000   -2.5000    0.0000 C.3     1  UNL1        0.0788
     15 C           2.0000    2.5000    0.0000 C.3     1  UNL1        0.0788
     16 H           5.5436   -0.5523    0.0000 H       1  UNL1        0.0381
     17 H           4.4272   -1.3716    0.0000 H       1  UNL1        0.0321
     18 H           5.2156   -1.1140    0.0000 H       1  UNL1        0.0321
     19 H           6.2619   -0.6200    0.0000 H       1  UNL1        0.0237
     20 H           6.8819    0.0000    0.0000 H       1  UNL1        0.0237
     21 H           6.2619    0.6200    0.0000 H       1  UNL1        0.0237
     22 H           1.4631   -0.8100    0.0000 H       1  UNL1        0.0655
     23 H           1.4631    0.8100    0.0000 H       1  UNL1        0.0655
     24 H           1.6900   -1.9631    0.0000 H       1  UNL1        0.0660
     25 H           1.4631   -2.8100    0.0000 H       1  UNL1        0.0660
     26 H           2.3100   -3.0369    0.0000 H       1  UNL1        0.0660
     27 H           2.3100    3.0369    0.0000 H       1  UNL1        0.0660
     28 H           1.4631    2.8100    0.0000 H       1  UNL1        0.0660
     29 H           1.6900    1.9631    0.0000 H       1  UNL1        0.0660
@<TRIPOS>BOND
     1     1     8    2
     2     2    10    1
     3     2    14    1
     4     3    11    1
     5     3    15    1
     6     4     5    1
     7     4     8    1
     8     4     9    1
     9     4    16    1
    10     5     6    1
    11     5    17    1
    12     5    18    1
    13     6     7   ar
    14     6    10   ar
    15     7     8    1
    16     7    11   ar
    17     9    19    1
    18     9    20    1
    19     9    21    1
    20    10    12   ar
    21    11    13   ar
    22    12    13   ar
    23    12    22    1
    24    13    23    1
    25    14    24    1
    26    14    25    1
    27    14    26    1
    28    15    27    1
    29    15    28    1
    30    15    29    1
