@<TRIPOS>MOLECULE
IMPHY003229
 133 141 0 0 0
SMALL
GASTEIGER

@<TRIPOS>ATOM
      1 O          11.7543    2.3307    0.0000 O.3     1  UNL1       -0.3447
      2 O           9.9818    3.2255    0.0000 O.3     1  UNL1       -0.3479
      3 O          13.0261   -3.2514    0.0000 O.2     1  UNL1       -0.2971
      4 O          10.3312   -5.9134    0.0000 O.3     1  UNL1       -0.3454
      5 O          12.4036    4.9961    0.0000 O.3     1  UNL1       -0.3449
      6 O           8.5991   -5.9134    0.0000 O.3     1  UNL1       -0.3405
      7 O          11.3813    6.3943    0.0000 O.3     1  UNL1       -0.3405
      8 O          10.3312   -7.9134    0.0000 O.3     1  UNL1       -0.3841
      9 O          14.0181    6.1765    0.0000 O.3     1  UNL1       -0.3841
     10 O           8.5991   -8.9134    0.0000 O.3     1  UNL1       -0.3864
     11 O           6.8671   -7.9134    0.0000 O.3     1  UNL1       -0.3865
     12 O          13.8031    8.1649    0.0000 O.3     1  UNL1       -0.3864
     13 O          11.9736    8.9729    0.0000 O.3     1  UNL1       -0.3865
     14 O           6.0010   -6.4134    0.0000 O.3     1  UNL1       -0.3461
     15 O           9.5518    7.2023    0.0000 O.3     1  UNL1       -0.3924
     16 O           4.2690   -6.4134    0.0000 O.3     1  UNL1       -0.3461
     17 O           6.0010   -4.4134    0.0000 O.3     1  UNL1       -0.3841
     18 O           4.2690   -3.4134    0.0000 O.3     1  UNL1       -0.3864
     19 O           2.5369   -4.4134    0.0000 O.3     1  UNL1       -0.3869
     20 C          10.3604    0.2835    0.0000 C.3     1  UNL1       -0.0233
     21 C          11.2284   -0.2132    0.0000 C.3     1  UNL1       -0.0295
     22 C          10.5659    1.2561    0.0000 C.3     1  UNL1       -0.0015
     23 C          11.2322   -1.2132    0.0000 C.3     1  UNL1       -0.0276
     24 C          10.3681   -1.7165    0.0000 C.3     1  UNL1       -0.0315
     25 C          11.5542    1.3630    0.0000 C.3     1  UNL1        0.0660
     26 C          11.9628    0.4567    0.0000 C.3     1  UNL1       -0.0226
     27 C           9.4963   -0.2199    0.0000 C.3     1  UNL1       -0.0467
     28 C          10.3561   -2.7581    0.0000 C.3     1  UNL1       -0.0193
     29 C          10.1636    2.1587    0.0000 C.3     1  UNL1        0.0161
     30 C           9.5002   -1.2199    0.0000 C.3     1  UNL1       -0.0489
     31 C          10.8966    2.8215    0.0000 C.3     1  UNL1        0.1755
     32 C          11.2562   -3.2824    0.0000 C.3     1  UNL1        0.0255
     33 C          12.1442   -1.7165    0.0000 C.3     1  UNL1        0.0095
     34 C           9.4925    0.7801    0.0000 C.3     1  UNL1       -0.0590
     35 C           9.4062   -3.2824    0.0000 C.3     1  UNL1       -0.0444
     36 C          12.1562   -2.7581    0.0000 C.2     1  UNL1        0.1373
     37 C          11.2687   -4.3673    0.0000 C.3     1  UNL1       -0.0165
     38 C           9.4920   -2.2547    0.0000 C.3     1  UNL1       -0.0587
     39 C          11.7038    3.4117    0.0000 C.3     1  UNL1        0.0284
     40 C           9.1852    2.3654    0.0000 C.3     1  UNL1       -0.0572
     41 C           9.3936   -4.3673    0.0000 C.3     1  UNL1       -0.0260
     42 C          10.3312   -4.9134    0.0000 C.3     1  UNL1        0.0625
     43 C          11.5963    4.4059    0.0000 C.3     1  UNL1        0.0713
     44 C          10.6816    4.8099    0.0000 C.3     1  UNL1        0.0063
     45 C           9.8743    4.2197    0.0000 C.3     1  UNL1        0.0559
     46 C          10.5741    5.8041    0.0000 C.3     1  UNL1       -0.0580
     47 C           9.4651   -6.4134    0.0000 C.3     1  UNL1        0.1882
     48 C          12.2961    5.9903    0.0000 C.3     1  UNL1        0.1882
     49 C           9.4651   -7.4134    0.0000 C.3     1  UNL1        0.1341
     50 C          13.1033    6.5805    0.0000 C.3     1  UNL1        0.1341
     51 C           8.5991   -7.9134    0.0000 C.3     1  UNL1        0.1141
     52 C           7.7331   -6.4134    0.0000 C.3     1  UNL1        0.1134
     53 C           7.7331   -7.4134    0.0000 C.3     1  UNL1        0.1119
     54 C          12.9958    7.5747    0.0000 C.3     1  UNL1        0.1141
     55 C          11.2738    7.3885    0.0000 C.3     1  UNL1        0.1130
     56 C          12.0811    7.9787    0.0000 C.3     1  UNL1        0.1119
     57 C           6.8671   -5.9134    0.0000 C.3     1  UNL1        0.0796
     58 C          10.3591    7.7925    0.0000 C.3     1  UNL1        0.0730
     59 C           5.1350   -5.9134    0.0000 C.3     1  UNL1        0.1876
     60 C           5.1350   -4.9134    0.0000 C.3     1  UNL1        0.1341
     61 C           4.2690   -4.4134    0.0000 C.3     1  UNL1        0.1137
     62 C           3.4030   -5.9134    0.0000 C.3     1  UNL1        0.0792
     63 C           3.4030   -4.9134    0.0000 C.3     1  UNL1        0.1069
     64 H          12.0067   -0.5549    0.0000 H       1  UNL1        0.0310
     65 H           9.7206    1.1666    0.0000 H       1  UNL1        0.0335
     66 H          11.9634   -0.7797    0.0000 H       1  UNL1        0.0310
     67 H          11.1026   -2.1443    0.0000 H       1  UNL1        0.0309
     68 H          12.3991    1.4562    0.0000 H       1  UNL1        0.0600
     69 H          12.3302   -0.0427    0.0000 H       1  UNL1        0.0293
     70 H          12.4981    0.7696    0.0000 H       1  UNL1        0.0293
     71 H           9.2820    0.3619    0.0000 H       1  UNL1        0.0271
     72 H           8.8862   -0.3299    0.0000 H       1  UNL1        0.0271
     73 H           9.9422    2.9794    0.0000 H       1  UNL1        0.0354
     74 H           8.8892   -1.1145    0.0000 H       1  UNL1        0.0268
     75 H           9.2904   -1.8033    0.0000 H       1  UNL1        0.0268
     76 H          11.9955   -3.7017    0.0000 H       1  UNL1        0.0384
     77 H          12.7562   -1.8155    0.0000 H       1  UNL1        0.0345
     78 H          12.3465   -1.1304    0.0000 H       1  UNL1        0.0345
     79 H           9.8004    1.3183    0.0000 H       1  UNL1        0.0235
     80 H           8.9544    1.0881    0.0000 H       1  UNL1        0.0235
     81 H           9.1846    0.2420    0.0000 H       1  UNL1        0.0235
     82 H           9.2039   -2.6963    0.0000 H       1  UNL1        0.0272
     83 H           8.7941   -3.3814    0.0000 H       1  UNL1        0.0272
     84 H          11.4845   -4.9485    0.0000 H       1  UNL1        0.0297
     85 H          11.8783   -4.2541    0.0000 H       1  UNL1        0.0297
     86 H           9.8041   -1.7190    0.0000 H       1  UNL1        0.0235
     87 H           8.9563   -1.9427    0.0000 H       1  UNL1        0.0235
     88 H           9.1799   -2.7905    0.0000 H       1  UNL1        0.0235
     89 H          11.9773    2.8552    0.0000 H       1  UNL1        0.0342
     90 H          12.2993    3.5844    0.0000 H       1  UNL1        0.0342
     91 H           9.3133    2.9720    0.0000 H       1  UNL1        0.0234
     92 H           8.5786    2.4935    0.0000 H       1  UNL1        0.0234
     93 H           9.0570    1.7588    0.0000 H       1  UNL1        0.0234
     94 H           8.7840   -4.2541    0.0000 H       1  UNL1        0.0290
     95 H           9.1778   -4.9485    0.0000 H       1  UNL1        0.0290
     96 H          11.0681   -5.3370    0.0000 H       1  UNL1        0.0597
     97 H          12.3739    4.0625    0.0000 H       1  UNL1        0.0602
     98 H           9.9040    5.1533    0.0000 H       1  UNL1        0.0345
     99 H           9.6008    4.7761    0.0000 H       1  UNL1        0.0564
    100 H           9.2788    4.0470    0.0000 H       1  UNL1        0.0564
    101 H          11.1905    5.8708    0.0000 H       1  UNL1        0.0234
    102 H          10.5074    6.4205    0.0000 H       1  UNL1        0.0234
    103 H           9.9576    5.7374    0.0000 H       1  UNL1        0.0234
    104 H          10.0021   -6.7234    0.0000 H       1  UNL1        0.0937
    105 H          11.7956    5.6244    0.0000 H       1  UNL1        0.0937
    106 H           9.4651   -8.0334    0.0000 H       1  UNL1        0.0671
    107 H          13.1700    5.9641    0.0000 H       1  UNL1        0.0671
    108 H           8.0622   -8.2234    0.0000 H       1  UNL1        0.0648
    109 H           7.7331   -5.7934    0.0000 H       1  UNL1        0.0647
    110 H           7.1962   -7.1034    0.0000 H       1  UNL1        0.0647
    111 H          12.9292    8.1911    0.0000 H       1  UNL1        0.0648
    112 H          10.7733    7.0226    0.0000 H       1  UNL1        0.0647
    113 H          11.5139    8.2292    0.0000 H       1  UNL1        0.0647
    114 H          10.3312   -8.5334    0.0000 H       1  UNL1        0.2101
    115 H           7.2656   -5.4384    0.0000 H       1  UNL1        0.0587
    116 H           6.4685   -5.4384    0.0000 H       1  UNL1        0.0587
    117 H          14.5186    6.5424    0.0000 H       1  UNL1        0.2101
    118 H           8.0622   -9.2234    0.0000 H       1  UNL1        0.2100
    119 H          10.7042    8.3076    0.0000 H       1  UNL1        0.0584
    120 H           9.9118    8.2219    0.0000 H       1  UNL1        0.0584
    121 H           6.8671   -8.5334    0.0000 H       1  UNL1        0.2100
    122 H          13.7364    8.7813    0.0000 H       1  UNL1        0.2100
    123 H          11.4064    9.2234    0.0000 H       1  UNL1        0.2100
    124 H           8.9846    7.4528    0.0000 H       1  UNL1        0.2095
    125 H           5.6720   -5.6034    0.0000 H       1  UNL1        0.0937
    126 H           5.1350   -4.2934    0.0000 H       1  UNL1        0.0671
    127 H           3.7320   -4.1034    0.0000 H       1  UNL1        0.0647
    128 H           2.7924   -5.8057    0.0000 H       1  UNL1        0.0587
    129 H           3.1909   -6.4960    0.0000 H       1  UNL1        0.0587
    130 H           3.9650   -4.2934    0.0000 H       1  UNL1        0.0643
    131 H           6.0010   -3.7934    0.0000 H       1  UNL1        0.2101
    132 H           3.7320   -3.1034    0.0000 H       1  UNL1        0.2100
    133 H           2.0000   -4.7234    0.0000 H       1  UNL1        0.2100
@<TRIPOS>BOND
     1     1    25    1
     2     1    31    1
     3     2    31    1
     4     2    45    1
     5     3    36    2
     6     4    42    1
     7    47     4    1
     8     5    43    1
     9    48     5    1
    10     6    47    1
    11     6    52    1
    12     7    48    1
    13     7    55    1
    14    49     8    1
    15     8   114    1
    16    50     9    1
    17     9   117    1
    18    51    10    1
    19    10   118    1
    20    53    11    1
    21    11   121    1
    22    54    12    1
    23    12   122    1
    24    56    13    1
    25    13   123    1
    26    14    57    1
    27    59    14    1
    28    15    58    1
    29    15   124    1
    30    16    59    1
    31    16    62    1
    32    60    17    1
    33    17   131    1
    34    61    18    1
    35    18   132    1
    36    63    19    1
    37    19   133    1
    38    20    21    1
    39    20    22    1
    40    20    27    1
    41    20    34    1
    42    21    23    1
    43    21    26    1
    44    21    64    1
    45    22    25    1
    46    22    29    1
    47    22    65    1
    48    23    24    1
    49    23    33    1
    50    23    66    1
    51    24    28    1
    52    24    30    1
    53    24    67    1
    54    25    26    1
    55    25    68    1
    56    26    69    1
    57    26    70    1
    58    27    30    1
    59    27    71    1
    60    27    72    1
    61    28    32    1
    62    28    35    1
    63    28    38    1
    64    29    31    1
    65    29    40    1
    66    29    73    1
    67    30    74    1
    68    30    75    1
    69    31    39    1
    70    32    36    1
    71    32    37    1
    72    32    76    1
    73    33    36    1
    74    33    77    1
    75    33    78    1
    76    34    79    1
    77    34    80    1
    78    34    81    1
    79    35    41    1
    80    35    82    1
    81    35    83    1
    82    37    42    1
    83    37    84    1
    84    37    85    1
    85    38    86    1
    86    38    87    1
    87    38    88    1
    88    39    43    1
    89    39    89    1
    90    39    90    1
    91    40    91    1
    92    40    92    1
    93    40    93    1
    94    41    42    1
    95    41    94    1
    96    41    95    1
    97    42    96    1
    98    43    44    1
    99    43    97    1
   100    44    45    1
   101    44    46    1
   102    44    98    1
   103    45    99    1
   104    45   100    1
   105    46   101    1
   106    46   102    1
   107    46   103    1
   108    47    49    1
   109    47   104    1
   110    48    50    1
   111    48   105    1
   112    49    51    1
   113    49   106    1
   114    50    54    1
   115    50   107    1
   116    51    53    1
   117    51   108    1
   118    52    53    1
   119    52    57    1
   120    52   109    1
   121    53   110    1
   122    54    56    1
   123    54   111    1
   124    55    56    1
   125    55    58    1
   126    55   112    1
   127    56   113    1
   128    57   115    1
   129    57   116    1
   130    58   119    1
   131    58   120    1
   132    59    60    1
   133    59   125    1
   134    60    61    1
   135    60   126    1
   136    61    63    1
   137    61   127    1
   138    62    63    1
   139    62   128    1
   140    62   129    1
   141    63   130    1
