@<TRIPOS>MOLECULE
IMPHY007961
 37 39 0 0 0
SMALL
GASTEIGER

@<TRIPOS>ATOM
      1 O           5.5301   -0.4521    0.0000 O.2     1  UNL1       -0.4508
      2 O           2.0000    1.5721    0.0000 O.3     1  UNL1       -0.4914
      3 O           2.0000   -0.4762    0.0000 O.3     1  UNL1       -0.4913
      4 O           7.2622    1.5479    0.0000 O.3     1  UNL1       -0.5007
      5 O           5.5301    2.5479    0.0000 O.2     1  UNL1       -0.2831
      6 O           9.8602   -1.9521    0.0000 O.3     1  UNL1       -0.5068
      7 C           4.6641    1.0479    0.0000 C.ar    1  UNL1        0.0714
      8 C           4.6641    0.0479    0.0000 C.ar    1  UNL1        0.1432
      9 C           6.3961    0.0479    0.0000 C.ar    1  UNL1        0.1806
     10 C           5.5301    1.5479    0.0000 C.ar    1  UNL1        0.2345
     11 C           3.7702    1.5826    0.0000 C.ar    1  UNL1       -0.0018
     12 C           6.3961    1.0479    0.0000 C.ar    1  UNL1        0.2081
     13 C           3.7702   -0.4867    0.0000 C.ar    1  UNL1        0.0267
     14 C           7.2622   -0.4521    0.0000 C.ar    1  UNL1        0.0213
     15 C           2.8641    1.0687    0.0000 C.ar    1  UNL1        0.1624
     16 C           2.8641    0.0271    0.0000 C.ar    1  UNL1        0.1650
     17 C           7.2622   -1.4521    0.0000 C.ar    1  UNL1       -0.0475
     18 C           8.1282    0.0479    0.0000 C.ar    1  UNL1       -0.0475
     19 C           8.1282   -1.9521    0.0000 C.ar    1  UNL1       -0.0195
     20 C           8.9942   -0.4521    0.0000 C.ar    1  UNL1       -0.0195
     21 C           8.9942   -1.4521    0.0000 C.ar    1  UNL1        0.1169
     22 C           2.0038    2.5721    0.0000 C.3     1  UNL1        0.0790
     23 C           2.0038   -1.4762    0.0000 C.3     1  UNL1        0.0790
     24 H           3.7773    2.2026    0.0000 H       1  UNL1        0.0664
     25 H           3.7773   -1.1067    0.0000 H       1  UNL1        0.0692
     26 H           6.7252   -1.7621    0.0000 H       1  UNL1        0.0626
     27 H           8.1282    0.6679    0.0000 H       1  UNL1        0.0626
     28 H           8.1282   -2.5721    0.0000 H       1  UNL1        0.0654
     29 H           9.5312   -0.1421    0.0000 H       1  UNL1        0.0654
     30 H           7.2622    2.1679    0.0000 H       1  UNL1        0.2924
     31 H           2.6238    2.5697    0.0000 H       1  UNL1        0.0660
     32 H           2.0062    3.1921    0.0000 H       1  UNL1        0.0660
     33 H           1.3839    2.5745    0.0000 H       1  UNL1        0.0660
     34 H           1.3839   -1.4786    0.0000 H       1  UNL1        0.0660
     35 H           2.0062   -2.0962    0.0000 H       1  UNL1        0.0660
     36 H           2.6238   -1.4738    0.0000 H       1  UNL1        0.0660
     37 H           9.8602   -2.5721    0.0000 H       1  UNL1        0.2921
@<TRIPOS>BOND
     1     1     8   ar
     2     1     9   ar
     3     2    15    1
     4     2    22    1
     5     3    16    1
     6     3    23    1
     7     4    12    1
     8     4    30    1
     9     5    10    2
    10     6    21    1
    11     6    37    1
    12     7     8   ar
    13     7    10   ar
    14     7    11   ar
    15     8    13   ar
    16     9    12   ar
    17     9    14    1
    18    10    12   ar
    19    11    15   ar
    20    11    24    1
    21    13    16   ar
    22    13    25    1
    23    14    17   ar
    24    14    18   ar
    25    15    16   ar
    26    17    19   ar
    27    17    26    1
    28    18    20   ar
    29    18    27    1
    30    19    21   ar
    31    19    28    1
    32    20    21   ar
    33    20    29    1
    34    22    31    1
    35    22    32    1
    36    22    33    1
    37    23    34    1
    38    23    35    1
    39    23    36    1
