@<TRIPOS>MOLECULE
IMPHY013434
 68 72 0 0 0
SMALL
GASTEIGER

@<TRIPOS>ATOM
      1 O           4.2690   -1.2857    0.0000 O.3     1  UNL1       -0.3339
      2 O           6.0010   -1.2857    0.0000 O.3     1  UNL1       -0.4532
      3 O           4.2690   -4.2857    0.0000 O.3     1  UNL1       -0.3864
      4 O           2.5369   -3.2857    0.0000 O.3     1  UNL1       -0.3866
      5 O           6.0010   -3.2857    0.0000 O.3     1  UNL1       -0.3829
      6 O          12.0632   -1.7857    0.0000 O.3     1  UNL1       -0.3369
      7 O          10.3312   -1.7857    0.0000 O.3     1  UNL1       -0.4608
      8 O          12.0632    1.2143    0.0000 O.3     1  UNL1       -0.3864
      9 O          10.3312    0.2143    0.0000 O.3     1  UNL1       -0.3829
     10 O          13.7953    0.2143    0.0000 O.3     1  UNL1       -0.3869
     11 O           6.8671    1.2143    0.0000 O.2     1  UNL1       -0.4507
     12 O           4.2690   -0.2857    0.0000 O.2     1  UNL1       -0.2830
     13 O           3.3648    1.2112    0.0000 O.3     1  UNL1       -0.5058
     14 O           5.1229    4.2836    0.0000 O.3     1  UNL1       -0.5065
     15 C           4.2690   -3.2857    0.0000 C.3     1  UNL1        0.1151
     16 C           3.4030   -2.7857    0.0000 C.3     1  UNL1        0.1096
     17 C           5.1350   -2.7857    0.0000 C.3     1  UNL1        0.1454
     18 C           3.4030   -1.7857    0.0000 C.3     1  UNL1        0.0883
     19 C           5.1350   -1.7857    0.0000 C.3     1  UNL1        0.2311
     20 C          12.0632    0.2143    0.0000 C.3     1  UNL1        0.1148
     21 C          11.1972   -0.2857    0.0000 C.3     1  UNL1        0.1454
     22 C           2.5369   -1.2857    0.0000 C.3     1  UNL1       -0.0360
     23 C          12.9292   -0.2857    0.0000 C.3     1  UNL1        0.1070
     24 C          11.1972   -1.2857    0.0000 C.3     1  UNL1        0.2305
     25 C          12.9292   -1.2857    0.0000 C.3     1  UNL1        0.0802
     26 C           6.0010   -0.2857    0.0000 C.ar    1  UNL1        0.2138
     27 C           6.8671    0.2143    0.0000 C.ar    1  UNL1        0.1809
     28 C           5.1350    0.2143    0.0000 C.ar    1  UNL1        0.2382
     29 C           9.4651   -1.2857    0.0000 C.ar    1  UNL1        0.1240
     30 C           7.7331   -0.2857    0.0000 C.ar    1  UNL1        0.0213
     31 C           5.1350    1.2143    0.0000 C.ar    1  UNL1        0.1092
     32 C           6.0010    1.7143    0.0000 C.ar    1  UNL1        0.1465
     33 C           8.5991   -1.7857    0.0000 C.ar    1  UNL1       -0.0192
     34 C           9.4651   -0.2857    0.0000 C.ar    1  UNL1       -0.0192
     35 C           7.7331   -1.2857    0.0000 C.ar    1  UNL1       -0.0475
     36 C           8.5991    0.2143    0.0000 C.ar    1  UNL1       -0.0475
     37 C           4.2250    1.7212    0.0000 C.ar    1  UNL1        0.1348
     38 C           6.0171    2.7558    0.0000 C.ar    1  UNL1        0.0231
     39 C           4.2170    2.7628    0.0000 C.ar    1  UNL1        0.0223
     40 C           5.1191    3.2836    0.0000 C.ar    1  UNL1        0.1239
     41 H           3.7320   -3.5957    0.0000 H       1  UNL1        0.0648
     42 H           3.4030   -3.4057    0.0000 H       1  UNL1        0.0646
     43 H           5.1350   -3.4057    0.0000 H       1  UNL1        0.0683
     44 H           3.4030   -1.1657    0.0000 H       1  UNL1        0.0621
     45 H           5.1350   -1.1657    0.0000 H       1  UNL1        0.1084
     46 H          12.6002    0.5243    0.0000 H       1  UNL1        0.0648
     47 H          11.1972    0.3343    0.0000 H       1  UNL1        0.0683
     48 H           2.8469   -0.7487    0.0000 H       1  UNL1        0.0255
     49 H           2.0000   -0.9757    0.0000 H       1  UNL1        0.0255
     50 H           2.2269   -1.8226    0.0000 H       1  UNL1        0.0255
     51 H          13.4662   -0.5957    0.0000 H       1  UNL1        0.0643
     52 H          11.1972   -1.9057    0.0000 H       1  UNL1        0.1084
     53 H          13.1413   -1.8683    0.0000 H       1  UNL1        0.0588
     54 H          13.5398   -1.1780    0.0000 H       1  UNL1        0.0588
     55 H           3.7320   -4.5957    0.0000 H       1  UNL1        0.2100
     56 H           2.0000   -2.9757    0.0000 H       1  UNL1        0.2100
     57 H           6.0010   -3.9057    0.0000 H       1  UNL1        0.2102
     58 H          12.6002    1.5243    0.0000 H       1  UNL1        0.2100
     59 H          10.3312    0.8343    0.0000 H       1  UNL1        0.2102
     60 H          14.3322   -0.0957    0.0000 H       1  UNL1        0.2100
     61 H           8.5991   -2.4057    0.0000 H       1  UNL1        0.0654
     62 H          10.0021    0.0243    0.0000 H       1  UNL1        0.0654
     63 H           7.1962   -1.5957    0.0000 H       1  UNL1        0.0626
     64 H           8.5991    0.8343    0.0000 H       1  UNL1        0.0626
     65 H           6.5576    3.0596    0.0000 H       1  UNL1        0.0691
     66 H           3.6788    3.0707    0.0000 H       1  UNL1        0.0691
     67 H           2.8243    1.5150    0.0000 H       1  UNL1        0.2922
     68 H           4.5872    4.5957    0.0000 H       1  UNL1        0.2921
@<TRIPOS>BOND
     1     1    18    1
     2     1    19    1
     3    19     2    1
     4     2    26    1
     5     3    15    1
     6     3    55    1
     7    16     4    1
     8     4    56    1
     9    17     5    1
    10     5    57    1
    11     6    24    1
    12     6    25    1
    13    24     7    1
    14     7    29    1
    15     8    20    1
    16     8    58    1
    17     9    21    1
    18     9    59    1
    19    23    10    1
    20    10    60    1
    21    11    27   ar
    22    11    32   ar
    23    12    28    2
    24    13    37    1
    25    13    67    1
    26    14    40    1
    27    14    68    1
    28    15    16    1
    29    15    17    1
    30    15    41    1
    31    16    18    1
    32    16    42    1
    33    17    19    1
    34    17    43    1
    35    18    22    1
    36    18    44    1
    37    19    45    1
    38    20    21    1
    39    20    23    1
    40    20    46    1
    41    21    24    1
    42    21    47    1
    43    22    48    1
    44    22    49    1
    45    22    50    1
    46    23    25    1
    47    23    51    1
    48    24    52    1
    49    25    53    1
    50    25    54    1
    51    26    27   ar
    52    26    28   ar
    53    27    30    1
    54    28    31   ar
    55    29    33   ar
    56    29    34   ar
    57    30    35   ar
    58    30    36   ar
    59    31    32   ar
    60    31    37   ar
    61    32    38   ar
    62    33    35   ar
    63    33    61    1
    64    34    36   ar
    65    34    62    1
    66    35    63    1
    67    36    64    1
    68    37    39   ar
    69    38    40   ar
    70    38    65    1
    71    39    40   ar
    72    39    66    1
