@<TRIPOS>MOLECULE
IMPHY000547
 20 20 0 0 0
SMALL
GASTEIGER

@<TRIPOS>ATOM
      1 O           4.2690    1.6550    0.0000 O.3     1  UNL1       -0.5028
      2 O           2.5369    0.6550    0.0000 O.3     1  UNL1       -0.5009
      3 O           2.5369   -1.3450    0.0000 O.3     1  UNL1       -0.5032
      4 O           6.0010    1.6550    0.0000 O.2     1  UNL1       -0.2922
      5 C           5.1350    0.1550    0.0000 C.ar    1  UNL1        0.0624
      6 C           4.2690    0.6550    0.0000 C.ar    1  UNL1        0.1726
      7 C           3.4030    0.1550    0.0000 C.ar    1  UNL1        0.2013
      8 C           5.1350   -0.8450    0.0000 C.ar    1  UNL1       -0.0441
      9 C           3.4030   -0.8450    0.0000 C.ar    1  UNL1        0.1620
     10 C           4.2690   -1.3450    0.0000 C.ar    1  UNL1       -0.0156
     11 C           6.0010    0.6550    0.0000 C.2     1  UNL1        0.1637
     12 C           6.8671    0.1550    0.0000 C.3     1  UNL1       -0.0013
     13 H           5.6720   -1.1550    0.0000 H       1  UNL1        0.0627
     14 H           4.2690   -1.9650    0.0000 H       1  UNL1        0.0655
     15 H           6.5571   -0.3819    0.0000 H       1  UNL1        0.0309
     16 H           7.4040   -0.1550    0.0000 H       1  UNL1        0.0309
     17 H           7.1771    0.6919    0.0000 H       1  UNL1        0.0309
     18 H           3.7320    1.9650    0.0000 H       1  UNL1        0.2923
     19 H           2.0000    0.3450    0.0000 H       1  UNL1        0.2924
     20 H           2.5369   -1.9650    0.0000 H       1  UNL1        0.2923
@<TRIPOS>BOND
     1     1     6    1
     2     1    18    1
     3     2     7    1
     4     2    19    1
     5     3     9    1
     6     3    20    1
     7     4    11    2
     8     5     6   ar
     9     5     8   ar
    10     5    11    1
    11     6     7   ar
    12     7     9   ar
    13     8    10   ar
    14     8    13    1
    15     9    10   ar
    16    10    14    1
    17    11    12    1
    18    12    15    1
    19    12    16    1
    20    12    17    1
