@<TRIPOS>MOLECULE
IMPHY009446
 63 67 0 0 0
SMALL
GASTEIGER

@<TRIPOS>ATOM
      1 O           4.2690   -2.8000    0.0000 O.3     1  UNL1       -0.3405
      2 O           6.0010   -2.8000    0.0000 O.3     1  UNL1       -0.3487
      3 O           4.2690   -5.8000    0.0000 O.3     1  UNL1       -0.3864
      4 O           2.5369   -4.8000    0.0000 O.3     1  UNL1       -0.3865
      5 O           6.0010   -4.8000    0.0000 O.3     1  UNL1       -0.3841
      6 O           2.5369   -1.8000    0.0000 O.3     1  UNL1       -0.3924
      7 O          10.2022    1.8671    0.0000 O.2     1  UNL1       -0.4511
      8 O          10.3312   -0.3000    0.0000 O.3     1  UNL1       -0.4914
      9 O          12.7689    4.7161    0.0000 O.3     1  UNL1       -0.4526
     10 O          11.9641    6.1100    0.0000 O.3     1  UNL1       -0.4526
     11 C           4.2690   -4.8000    0.0000 C.3     1  UNL1        0.1141
     12 C           3.4030   -4.3000    0.0000 C.3     1  UNL1        0.1119
     13 C           5.1350   -4.3000    0.0000 C.3     1  UNL1        0.1341
     14 C           3.4030   -3.3000    0.0000 C.3     1  UNL1        0.1130
     15 C           5.1350   -3.3000    0.0000 C.3     1  UNL1        0.1879
     16 C           2.5369   -2.8000    0.0000 C.3     1  UNL1        0.0730
     17 C           6.0010   -1.8000    0.0000 C.3     1  UNL1        0.0511
     18 C           6.8671   -1.3000    0.0000 C.3     1  UNL1       -0.0254
     19 C           6.8671   -0.3000    0.0000 C.3     1  UNL1       -0.0255
     20 C           7.7331    0.2000    0.0000 C.ar    1  UNL1       -0.0430
     21 C           7.7331    1.2000    0.0000 C.ar    1  UNL1       -0.0475
     22 C           8.5991    1.7000    0.0000 C.ar    1  UNL1        0.0247
     23 C           8.5991   -0.3000    0.0000 C.ar    1  UNL1       -0.0131
     24 C           9.4651    1.2000    0.0000 C.ar    1  UNL1        0.1771
     25 C           9.4651    0.2000    0.0000 C.ar    1  UNL1        0.1630
     26 C           8.8083    2.6718    0.0000 C.ar    1  UNL1       -0.0080
     27 C           9.7970    2.7749    0.0000 C.ar    1  UNL1        0.1365
     28 C          10.2970    3.6409    0.0000 C.ar    1  UNL1        0.0210
     29 C          11.2970    3.6409    0.0000 C.ar    1  UNL1       -0.0055
     30 C           9.7970    4.5069    0.0000 C.ar    1  UNL1       -0.0474
     31 C          11.7970    4.5069    0.0000 C.ar    1  UNL1        0.1669
     32 C          11.2970    5.3730    0.0000 C.ar    1  UNL1        0.1663
     33 C          10.2970    5.3730    0.0000 C.ar    1  UNL1       -0.0155
     34 C          10.3312   -1.3000    0.0000 C.3     1  UNL1        0.0790
     35 C          12.8719    5.7049    0.0000 C.3     1  UNL1        0.2332
     36 H           4.8059   -5.1100    0.0000 H       1  UNL1        0.0648
     37 H           3.4030   -4.9200    0.0000 H       1  UNL1        0.0647
     38 H           5.6720   -3.9900    0.0000 H       1  UNL1        0.0671
     39 H           3.4030   -2.6800    0.0000 H       1  UNL1        0.0647
     40 H           5.1350   -2.6800    0.0000 H       1  UNL1        0.0937
     41 H           1.9264   -2.6923    0.0000 H       1  UNL1        0.0584
     42 H           2.3249   -3.3826    0.0000 H       1  UNL1        0.0584
     43 H           5.7890   -1.2174    0.0000 H       1  UNL1        0.0561
     44 H           5.3905   -1.9076    0.0000 H       1  UNL1        0.0561
     45 H           3.7320   -6.1100    0.0000 H       1  UNL1        0.2100
     46 H           2.0000   -4.4900    0.0000 H       1  UNL1        0.2100
     47 H           6.5380   -4.4900    0.0000 H       1  UNL1        0.2101
     48 H           7.0791   -1.8826    0.0000 H       1  UNL1        0.0290
     49 H           7.4776   -1.1923    0.0000 H       1  UNL1        0.0290
     50 H           6.6550    0.2826    0.0000 H       1  UNL1        0.0314
     51 H           6.2565   -0.4076    0.0000 H       1  UNL1        0.0314
     52 H           2.0000   -1.4900    0.0000 H       1  UNL1        0.2095
     53 H           7.1962    1.5100    0.0000 H       1  UNL1        0.0627
     54 H           8.5991   -0.9200    0.0000 H       1  UNL1        0.0658
     55 H           8.3942    3.1333    0.0000 H       1  UNL1        0.0661
     56 H          11.6070    3.1040    0.0000 H       1  UNL1        0.0662
     57 H           9.1770    4.5069    0.0000 H       1  UNL1        0.0626
     58 H           9.9870    5.9099    0.0000 H       1  UNL1        0.0655
     59 H          13.4784    5.5761    0.0000 H       1  UNL1        0.1166
     60 H          13.0637    6.2945    0.0000 H       1  UNL1        0.1166
     61 H           9.7112   -1.3000    0.0000 H       1  UNL1        0.0660
     62 H          10.3312   -1.9200    0.0000 H       1  UNL1        0.0660
     63 H          10.9512   -1.3000    0.0000 H       1  UNL1        0.0660
@<TRIPOS>BOND
     1     1    14    1
     2     1    15    1
     3    15     2    1
     4     2    17    1
     5    11     3    1
     6     3    45    1
     7    12     4    1
     8     4    46    1
     9    13     5    1
    10     5    47    1
    11     6    16    1
    12     6    52    1
    13     7    24   ar
    14     7    27   ar
    15     8    25    1
    16     8    34    1
    17     9    31    1
    18     9    35    1
    19    10    32    1
    20    10    35    1
    21    11    12    1
    22    11    13    1
    23    11    36    1
    24    12    14    1
    25    12    37    1
    26    13    15    1
    27    13    38    1
    28    14    16    1
    29    14    39    1
    30    15    40    1
    31    16    41    1
    32    16    42    1
    33    17    18    1
    34    17    43    1
    35    17    44    1
    36    18    19    1
    37    18    48    1
    38    18    49    1
    39    19    20    1
    40    19    50    1
    41    19    51    1
    42    20    21   ar
    43    20    23   ar
    44    21    22   ar
    45    21    53    1
    46    22    24   ar
    47    22    26   ar
    48    23    25   ar
    49    23    54    1
    50    24    25   ar
    51    26    27   ar
    52    26    55    1
    53    27    28    1
    54    28    29   ar
    55    28    30   ar
    56    29    31   ar
    57    29    56    1
    58    30    33   ar
    59    30    57    1
    60    31    32   ar
    61    32    33   ar
    62    33    58    1
    63    34    61    1
    64    34    62    1
    65    34    63    1
    66    35    59    1
    67    35    60    1
