@<TRIPOS>MOLECULE
IMPHY014385
 58 61 0 0 0
SMALL
GASTEIGER

@<TRIPOS>ATOM
      1 O           8.1745   -0.0066    0.0000 O.3     1  UNL1       -0.3883
      2 O           8.6179    1.1708    0.0000 O.3     1  UNL1       -0.3834
      3 O           4.5295    2.0737    0.0000 O.3     1  UNL1       -0.3915
      4 O           9.4022    2.0711    0.0000 O.3     1  UNL1       -0.3921
      5 O           2.3052   -2.1910    0.0000 O.3     1  UNL1       -0.4802
      6 O           3.8128   -3.0437    0.0000 O.2     1  UNL1       -0.2504
      7 C           6.5090    0.3000    0.0000 C.3     1  UNL1        0.0055
      8 C           5.6405    0.7956    0.0000 C.3     1  UNL1       -0.0012
      9 C           4.7330    0.2843    0.0000 C.3     1  UNL1       -0.0225
     10 C           7.1606    2.4504    0.0000 C.3     1  UNL1       -0.0046
     11 C           6.4845    1.4813    0.0000 C.3     1  UNL1       -0.0389
     12 C           4.7302   -0.7574    0.0000 C.3     1  UNL1       -0.0198
     13 C           7.4380    0.6699    0.0000 C.3     1  UNL1        0.0922
     14 C           6.5302   -0.7415    0.0000 C.3     1  UNL1       -0.0443
     15 C           7.7280    1.6270    0.0000 C.3     1  UNL1        0.1180
     16 C           5.4865    1.7837    0.0000 C.3     1  UNL1        0.0595
     17 C           5.6349   -1.2737    0.0000 C.3     1  UNL1       -0.0481
     18 C           6.1630    2.5201    0.0000 C.3     1  UNL1       -0.0209
     19 C           3.7975   -1.3118    0.0000 C.3     1  UNL1        0.0681
     20 C           3.8034    0.8437    0.0000 C.3     1  UNL1       -0.0470
     21 C           4.3936    1.2249    0.0000 C.3     1  UNL1       -0.0589
     22 C           2.8552   -0.7740    0.0000 C.3     1  UNL1       -0.0372
     23 C           2.8582    0.3110    0.0000 C.3     1  UNL1       -0.0515
     24 C           8.4369    2.3323    0.0000 C.3     1  UNL1        0.0757
     25 C           4.3052   -2.1733    0.0000 C.3     1  UNL1       -0.0491
     26 C           3.3052   -2.1822    0.0000 C.2     1  UNL1        0.3110
     27 H           4.9023    1.2170    0.0000 H       1  UNL1        0.0337
     28 H           7.4071    3.2639    0.0000 H       1  UNL1        0.0331
     29 H           6.1103    1.9756    0.0000 H       1  UNL1        0.0275
     30 H           5.8988    1.2778    0.0000 H       1  UNL1        0.0275
     31 H           4.7377   -1.6073    0.0000 H       1  UNL1        0.0317
     32 H           7.3258    0.0602    0.0000 H       1  UNL1        0.0628
     33 H           6.7512   -1.3208    0.0000 H       1  UNL1        0.0272
     34 H           7.1388   -0.6229    0.0000 H       1  UNL1        0.0272
     35 H           5.3231    2.3818    0.0000 H       1  UNL1        0.0596
     36 H           5.2399   -1.7516    0.0000 H       1  UNL1        0.0269
     37 H           6.0382   -1.7446    0.0000 H       1  UNL1        0.0269
     38 H           6.3428    3.1135    0.0000 H       1  UNL1        0.0294
     39 H           5.6246    2.8275    0.0000 H       1  UNL1        0.0294
     40 H           4.2093    1.3124    0.0000 H       1  UNL1        0.0271
     41 H           3.4111    1.3238    0.0000 H       1  UNL1        0.0271
     42 H           4.9768    1.4353    0.0000 H       1  UNL1        0.0235
     43 H           4.1831    1.8081    0.0000 H       1  UNL1        0.0235
     44 H           3.8104    1.0144    0.0000 H       1  UNL1        0.0235
     45 H           2.2446   -0.6662    0.0000 H       1  UNL1        0.0276
     46 H           2.6446   -1.3571    0.0000 H       1  UNL1        0.0276
     47 H           2.6507    0.8953    0.0000 H       1  UNL1        0.0266
     48 H           2.2470    0.2066    0.0000 H       1  UNL1        0.0266
     49 H           8.7003    2.8936    0.0000 H       1  UNL1        0.0587
     50 H           7.9299    2.6892    0.0000 H       1  UNL1        0.0587
     51 H           8.0395   -0.6117    0.0000 H       1  UNL1        0.2099
     52 H           3.7710   -2.4881    0.0000 H       1  UNL1        0.0240
     53 H           4.6199   -2.7075    0.0000 H       1  UNL1        0.0240
     54 H           4.8393   -1.8586    0.0000 H       1  UNL1        0.0240
     55 H           8.6488    0.5515    0.0000 H       1  UNL1        0.2104
     56 H           4.3885    2.6774    0.0000 H       1  UNL1        0.2098
     57 H           9.8417    2.5084    0.0000 H       1  UNL1        0.2095
     58 H           2.0000   -2.7307    0.0000 H       1  UNL1        0.2951
@<TRIPOS>BOND
     1    13     1    1
     2     1    51    1
     3    15     2    1
     4     2    55    1
     5    16     3    1
     6     3    56    1
     7     4    24    1
     8     4    57    1
     9     5    26    1
    10     5    58    1
    11     6    26    2
    12     7     8    1
    13     7    11    1
    14     7    13    1
    15     7    14    1
    16     8     9    1
    17     8    16    1
    18     8    27    1
    19     9    12    1
    20     9    20    1
    21     9    21    1
    22    10    11    1
    23    10    15    1
    24    10    18    1
    25    10    28    1
    26    11    29    1
    27    11    30    1
    28    12    17    1
    29    12    19    1
    30    12    31    1
    31    13    15    1
    32    13    32    1
    33    14    17    1
    34    14    33    1
    35    14    34    1
    36    15    24    1
    37    16    18    1
    38    16    35    1
    39    17    36    1
    40    17    37    1
    41    18    38    1
    42    18    39    1
    43    19    22    1
    44    19    25    1
    45    19    26    1
    46    20    23    1
    47    20    40    1
    48    20    41    1
    49    21    42    1
    50    21    43    1
    51    21    44    1
    52    22    23    1
    53    22    45    1
    54    22    46    1
    55    23    47    1
    56    23    48    1
    57    24    49    1
    58    24    50    1
    59    25    52    1
    60    25    53    1
    61    25    54    1
