@<TRIPOS>MOLECULE
IMPHY009047
 29 29 0 0 0
SMALL
GASTEIGER

@<TRIPOS>ATOM
      1 O           3.0000    2.9050    0.0000 O.3     1  UNL1       -0.3888
      2 O           2.1340   -2.5950    0.0000 O.3     1  UNL1       -0.4773
      3 O           3.8660   -2.5950    0.0000 O.2     1  UNL1       -0.2455
      4 C           3.0000    0.9050    0.0000 C.3     1  UNL1       -0.0089
      5 C           3.0000    1.9050    0.0000 C.3     1  UNL1        0.0636
      6 C           2.1340    0.4050    0.0000 C.3     1  UNL1       -0.0431
      7 C           3.8660    0.4050    0.0000 C.3     1  UNL1       -0.0286
      8 C           2.1340   -0.5950    0.0000 C.3     1  UNL1       -0.0209
      9 C           3.8660   -0.5950    0.0000 C.2     1  UNL1       -0.0737
     10 C           3.0000   -1.0950    0.0000 C.2     1  UNL1        0.0325
     11 C           4.0000    1.9050    0.0000 C.3     1  UNL1       -0.0361
     12 C           2.0000    1.9050    0.0000 C.3     1  UNL1       -0.0361
     13 C           3.0000   -2.0950    0.0000 C.2     1  UNL1        0.3325
     14 H           3.7361    1.3300    0.0000 H       1  UNL1        0.0331
     15 H           1.9219    0.9876    0.0000 H       1  UNL1        0.0272
     16 H           1.5234    0.2973    0.0000 H       1  UNL1        0.0272
     17 H           4.4766    0.2973    0.0000 H       1  UNL1        0.0311
     18 H           4.0781    0.9876    0.0000 H       1  UNL1        0.0311
     19 H           1.5234   -0.4873    0.0000 H       1  UNL1        0.0315
     20 H           1.9219   -1.1776    0.0000 H       1  UNL1        0.0315
     21 H           4.4030   -0.9050    0.0000 H       1  UNL1        0.0577
     22 H           4.0000    1.2850    0.0000 H       1  UNL1        0.0257
     23 H           4.6200    1.9050    0.0000 H       1  UNL1        0.0257
     24 H           4.0000    2.5250    0.0000 H       1  UNL1        0.0257
     25 H           2.0000    2.5250    0.0000 H       1  UNL1        0.0257
     26 H           1.3800    1.9050    0.0000 H       1  UNL1        0.0257
     27 H           2.0000    1.2850    0.0000 H       1  UNL1        0.0257
     28 H           3.5369    3.2150    0.0000 H       1  UNL1        0.2101
     29 H           2.1340   -3.2150    0.0000 H       1  UNL1        0.2954
@<TRIPOS>BOND
     1     1     5    1
     2     1    28    1
     3     2    13    1
     4     2    29    1
     5     3    13    2
     6     4     5    1
     7     4     6    1
     8     4     7    1
     9     4    14    1
    10     5    11    1
    11     5    12    1
    12     6     8    1
    13     6    15    1
    14     6    16    1
    15     7     9    1
    16     7    17    1
    17     7    18    1
    18     8    10    1
    19     8    19    1
    20     8    20    1
    21     9    10    2
    22     9    21    1
    23    10    13    1
    24    11    22    1
    25    11    23    1
    26    11    24    1
    27    12    25    1
    28    12    26    1
    29    12    27    1
