@<TRIPOS>MOLECULE
IMPHY005314
 39 43 0 0 0
SMALL
GASTEIGER

@<TRIPOS>ATOM
      1 O           6.9742    1.2637    0.0000 O.3     1  UNL1       -0.4520
      2 O           6.9742    2.8732    0.0000 O.3     1  UNL1       -0.4526
      3 O           7.0184   -2.0685    0.0000 O.3     1  UNL1       -0.4951
      4 N           2.5466    1.5898    0.0000 N.3     1  UNL1       -0.3087
      5 C           3.3859    1.0616    0.0000 C.3     1  UNL1        0.0378
      6 C           4.2959    1.5684    0.0000 C.ar    1  UNL1       -0.0155
      7 C           3.3779    0.0200    0.0000 C.3     1  UNL1       -0.0075
      8 C           5.1619    1.0684    0.0000 C.ar    1  UNL1        0.0329
      9 C           4.2959    2.5684    0.0000 C.ar    1  UNL1       -0.0372
     10 C           3.4377    3.0654    0.0000 C.3     1  UNL1       -0.0146
     11 C           2.5722    2.5812    0.0000 C.3     1  UNL1        0.0004
     12 C           4.2799   -0.5008    0.0000 C.ar    1  UNL1       -0.0375
     13 C           5.1780    0.0269    0.0000 C.ar    1  UNL1       -0.0073
     14 C           6.0279    1.5684    0.0000 C.ar    1  UNL1        0.1742
     15 C           5.1619    3.0684    0.0000 C.ar    1  UNL1       -0.0126
     16 C           6.0279    2.5684    0.0000 C.ar    1  UNL1        0.1671
     17 C           4.2716   -1.5858    0.0000 C.ar    1  UNL1       -0.0545
     18 C           6.1299   -0.4937    0.0000 C.ar    1  UNL1       -0.0119
     19 C           6.1466   -1.5786    0.0000 C.ar    1  UNL1        0.1207
     20 C           7.5578    2.0684    0.0000 C.3     1  UNL1        0.2333
     21 C           5.2112   -2.1283    0.0000 C.ar    1  UNL1       -0.0197
     22 C           7.0299   -3.0684    0.0000 C.3     1  UNL1        0.0788
     23 H           2.6402    0.6536    0.0000 H       1  UNL1        0.0513
     24 H           2.7678    0.1308    0.0000 H       1  UNL1        0.0332
     25 H           3.1643   -0.5621    0.0000 H       1  UNL1        0.0332
     26 H           3.8387    3.5382    0.0000 H       1  UNL1        0.0326
     27 H           3.0436    3.5441    0.0000 H       1  UNL1        0.0326
     28 H           2.0000    1.2972    0.0000 H       1  UNL1        0.1225
     29 H           2.3704    3.1675    0.0000 H       1  UNL1        0.0427
     30 H           1.9594    2.4868    0.0000 H       1  UNL1        0.0427
     31 H           5.1619    3.6884    0.0000 H       1  UNL1        0.0658
     32 H           3.7334   -1.8937    0.0000 H       1  UNL1        0.0622
     33 H           6.6608   -0.1734    0.0000 H       1  UNL1        0.0660
     34 H           8.0186    1.6537    0.0000 H       1  UNL1        0.1166
     35 H           8.0186    2.4832    0.0000 H       1  UNL1        0.1166
     36 H           5.2136   -2.7483    0.0000 H       1  UNL1        0.0654
     37 H           6.4100   -3.0756    0.0000 H       1  UNL1        0.0660
     38 H           7.0371   -3.6884    0.0000 H       1  UNL1        0.0660
     39 H           7.6499   -3.0613    0.0000 H       1  UNL1        0.0660
@<TRIPOS>BOND
     1     1    14    1
     2     1    20    1
     3     2    16    1
     4     2    20    1
     5     3    19    1
     6     3    22    1
     7     4     5    1
     8     4    11    1
     9     4    28    1
    10     5     6    1
    11     5     7    1
    12     5    23    1
    13     6     8   ar
    14     6     9   ar
    15     7    12    1
    16     7    24    1
    17     7    25    1
    18     8    13    1
    19     8    14   ar
    20     9    10    1
    21     9    15   ar
    22    10    11    1
    23    10    26    1
    24    10    27    1
    25    11    29    1
    26    11    30    1
    27    12    13   ar
    28    12    17   ar
    29    13    18   ar
    30    14    16   ar
    31    15    16   ar
    32    15    31    1
    33    17    21   ar
    34    17    32    1
    35    18    19   ar
    36    18    33    1
    37    19    21   ar
    38    20    34    1
    39    20    35    1
    40    21    36    1
    41    22    37    1
    42    22    38    1
    43    22    39    1
