@<TRIPOS>MOLECULE
IMPHY006633
 67 71 0 0 0
SMALL
GASTEIGER

@<TRIPOS>ATOM
      1 O           6.3578   -3.3214    0.0000 O.3     1  UNL1       -0.4811
      2 O           8.1142   -0.1672    0.0000 O.2     1  UNL1       -0.4534
      3 O           8.7564    2.9453    0.0000 O.3     1  UNL1       -0.4592
      4 O           4.6119   -0.1641    0.0000 O.3     1  UNL1       -0.5055
      5 O           5.5161    1.3328    0.0000 O.2     1  UNL1       -0.2866
      6 O          11.3882   -0.0688    0.0000 O.3     1  UNL1       -0.5033
      7 O          11.9782    1.8718    0.0000 O.3     1  UNL1       -0.5032
      8 C           7.2974   -3.8639    0.0000 C.3     1  UNL1        0.1235
      9 C           7.2642   -1.7087    0.0000 C.ar    1  UNL1        0.0600
     10 C           6.3662   -2.2365    0.0000 C.ar    1  UNL1        0.1393
     11 C           7.2481   -0.6672    0.0000 C.ar    1  UNL1        0.1534
     12 C           6.3821   -0.1672    0.0000 C.ar    1  UNL1        0.1066
     13 C           5.4641   -1.7156    0.0000 C.ar    1  UNL1        0.0409
     14 C           7.2481    1.3328    0.0000 C.ar    1  UNL1        0.0502
     15 C           5.4721   -0.6741    0.0000 C.ar    1  UNL1        0.1382
     16 C           8.2328   -3.3142    0.0000 C.2     1  UNL1       -0.0408
     17 C           8.1142    0.8328    0.0000 C.ar    1  UNL1        0.1465
     18 C           8.2161   -2.2293    0.0000 C.2     1  UNL1       -0.0478
     19 C           6.3821    0.8328    0.0000 C.ar    1  UNL1        0.2002
     20 C           7.1085    2.3036    0.0000 C.3     1  UNL1        0.0378
     21 C           4.5961   -2.2123    0.0000 C.3     1  UNL1       -0.0023
     22 C           7.8008   -4.7280    0.0000 C.3     1  UNL1       -0.0215
     23 C           6.8008   -4.7319    0.0000 C.3     1  UNL1       -0.0215
     24 C           9.0247    1.1972    0.0000 C.ar    1  UNL1        0.0635
     25 C           7.7785    3.0199    0.0000 C.2     1  UNL1        0.1089
     26 C           9.3100    2.1356    0.0000 C.ar    1  UNL1        0.1423
     27 C           3.7320   -1.7090    0.0000 C.2     1  UNL1       -0.0807
     28 C           9.7110    0.4405    0.0000 C.ar    1  UNL1       -0.0023
     29 C           7.4156    3.9517    0.0000 C.2     1  UNL1       -0.0374
     30 C          10.3014    2.3823    0.0000 C.ar    1  UNL1        0.0265
     31 C          10.7079    0.6642    0.0000 C.ar    1  UNL1        0.1591
     32 C           2.8641   -2.2056    0.0000 C.2     1  UNL1       -0.0793
     33 C          11.0051    1.6416    0.0000 C.ar    1  UNL1        0.1618
     34 C           8.0412    4.7319    0.0000 C.3     1  UNL1       -0.0406
     35 C           6.4272    4.1034    0.0000 C.3     1  UNL1       -0.0406
     36 C           2.0000   -1.7023    0.0000 C.3     1  UNL1       -0.0440
     37 C           2.8602   -3.2056    0.0000 C.3     1  UNL1       -0.0440
     38 H           8.7733   -3.6180    0.0000 H       1  UNL1        0.0611
     39 H           8.7470   -1.9090    0.0000 H       1  UNL1        0.0624
     40 H           6.7618    2.8176    0.0000 H       1  UNL1        0.0394
     41 H           6.5300    2.0804    0.0000 H       1  UNL1        0.0394
     42 H           4.1958   -2.6857    0.0000 H       1  UNL1        0.0358
     43 H           4.9928   -2.6888    0.0000 H       1  UNL1        0.0358
     44 H           6.2626   -4.4239    0.0000 H       1  UNL1        0.0271
     45 H           6.4928   -5.2700    0.0000 H       1  UNL1        0.0271
     46 H           7.3389   -5.0398    0.0000 H       1  UNL1        0.0271
     47 H           7.2650   -5.0401    0.0000 H       1  UNL1        0.0271
     48 H           8.1128   -5.2638    0.0000 H       1  UNL1        0.0271
     49 H           8.3365   -4.4159    0.0000 H       1  UNL1        0.0271
     50 H           3.7344   -1.0890    0.0000 H       1  UNL1        0.0575
     51 H           9.5238   -0.1506    0.0000 H       1  UNL1        0.0663
     52 H           4.0714   -0.4678    0.0000 H       1  UNL1        0.2922
     53 H          10.4749    2.9775    0.0000 H       1  UNL1        0.0692
     54 H           8.5249    4.3440    0.0000 H       1  UNL1        0.0275
     55 H           8.4291    5.2156    0.0000 H       1  UNL1        0.0275
     56 H           7.5576    5.1197    0.0000 H       1  UNL1        0.0275
     57 H           6.5213    4.7162    0.0000 H       1  UNL1        0.0275
     58 H           5.8144    4.1975    0.0000 H       1  UNL1        0.0275
     59 H           6.3332    3.4906    0.0000 H       1  UNL1        0.0275
     60 H           2.3121   -1.1666    0.0000 H       1  UNL1        0.0274
     61 H           1.4643   -1.3902    0.0000 H       1  UNL1        0.0274
     62 H           1.6879   -2.2380    0.0000 H       1  UNL1        0.0274
     63 H           2.2402   -3.2032    0.0000 H       1  UNL1        0.0274
     64 H           2.8578   -3.8256    0.0000 H       1  UNL1        0.0274
     65 H           3.4802   -3.2080    0.0000 H       1  UNL1        0.0274
     66 H          11.9926    0.0693    0.0000 H       1  UNL1        0.2923
     67 H          12.1563    2.4657    0.0000 H       1  UNL1        0.2923
@<TRIPOS>BOND
     1     1     8    1
     2     1    10    1
     3     2    11   ar
     4     2    17   ar
     5     3    25    1
     6     3    26    1
     7     4    15    1
     8     4    52    1
     9     5    19    2
    10     6    31    1
    11     6    66    1
    12     7    33    1
    13     7    67    1
    14     8    16    1
    15     8    22    1
    16     8    23    1
    17     9    10   ar
    18     9    11   ar
    19     9    18    1
    20    10    13   ar
    21    11    12   ar
    22    12    15   ar
    23    12    19   ar
    24    13    15   ar
    25    13    21    1
    26    14    17   ar
    27    14    19   ar
    28    14    20    1
    29    16    18    2
    30    16    38    1
    31    17    24    1
    32    18    39    1
    33    20    25    1
    34    20    40    1
    35    20    41    1
    36    21    27    1
    37    21    42    1
    38    21    43    1
    39    22    47    1
    40    22    48    1
    41    22    49    1
    42    23    44    1
    43    23    45    1
    44    23    46    1
    45    24    26   ar
    46    24    28   ar
    47    25    29    2
    48    26    30   ar
    49    27    32    2
    50    27    50    1
    51    28    31   ar
    52    28    51    1
    53    29    34    1
    54    29    35    1
    55    30    33   ar
    56    30    53    1
    57    31    33   ar
    58    32    36    1
    59    32    37    1
    60    34    54    1
    61    34    55    1
    62    34    56    1
    63    35    57    1
    64    35    58    1
    65    35    59    1
    66    36    60    1
    67    36    61    1
    68    36    62    1
    69    37    63    1
    70    37    64    1
    71    37    65    1
