@<TRIPOS>MOLECULE
IMPHY014605
 60 66 0 0 0
SMALL
GASTEIGER

@<TRIPOS>ATOM
      1 O          10.0413   -0.7168    0.0000 O.2     1  UNL1       -0.2866
      2 O           5.6567    1.8147    0.0000 O.2     1  UNL1       -0.2866
      3 O           6.5173    2.3116    0.0000 O.2     1  UNL1       -0.2866
      4 O           6.5173   -2.7514    0.0000 O.2     1  UNL1       -0.2865
      5 O           5.6567   -2.2545    0.0000 O.2     1  UNL1       -0.2865
      6 O          10.0413    0.2770    0.0000 O.2     1  UNL1       -0.2865
      7 O           7.3986   -4.3640    0.0000 O.3     1  UNL1       -0.5060
      8 O           3.8194   -2.2976    0.0000 O.3     1  UNL1       -0.5060
      9 O          10.9972    1.8465    0.0000 O.3     1  UNL1       -0.5060
     10 C           7.4051    0.7801    0.0000 C.ar    1  UNL1        0.0453
     11 C           6.5390    0.2801    0.0000 C.ar    1  UNL1        0.0453
     12 C           8.2711   -0.7199    0.0000 C.ar    1  UNL1        0.0453
     13 C           8.2711    0.2801    0.0000 C.ar    1  UNL1        0.0454
     14 C           6.5390   -0.7199    0.0000 C.ar    1  UNL1        0.0454
     15 C           7.4051   -1.2199    0.0000 C.ar    1  UNL1        0.0454
     16 C           9.1811   -1.2268    0.0000 C.ar    1  UNL1        0.1954
     17 C           5.6451    0.8148    0.0000 C.ar    1  UNL1        0.1954
     18 C           7.3890    1.8216    0.0000 C.ar    1  UNL1        0.1954
     19 C           7.3890   -2.2614    0.0000 C.ar    1  UNL1        0.1987
     20 C           5.6451   -1.2546    0.0000 C.ar    1  UNL1        0.1987
     21 C           9.1811    0.7869    0.0000 C.ar    1  UNL1        0.1987
     22 C           9.1891   -2.2684    0.0000 C.ar    1  UNL1        0.0369
     23 C           4.7390    0.3009    0.0000 C.ar    1  UNL1        0.0369
     24 C           8.2870    2.3494    0.0000 C.ar    1  UNL1        0.0369
     25 C           8.2870   -2.7892    0.0000 C.ar    1  UNL1        0.0744
     26 C           4.7390   -0.7407    0.0000 C.ar    1  UNL1        0.0744
     27 C           9.1891    1.8285    0.0000 C.ar    1  UNL1        0.0744
     28 C          10.1370   -2.7963    0.0000 C.ar    1  UNL1       -0.0471
     29 C           3.8079    0.8578    0.0000 C.ar    1  UNL1       -0.0471
     30 C           8.2703    3.4342    0.0000 C.ar    1  UNL1       -0.0471
     31 C           8.2703   -3.8740    0.0000 C.ar    1  UNL1        0.1286
     32 C           3.8079   -1.2976    0.0000 C.ar    1  UNL1        0.1286
     33 C          10.1370    2.3565    0.0000 C.ar    1  UNL1        0.1286
     34 C          10.1454   -3.8813    0.0000 C.ar    1  UNL1       -0.0463
     35 C           2.8641    0.3226    0.0000 C.ar    1  UNL1       -0.0463
     36 C           9.2057    3.9840    0.0000 C.ar    1  UNL1       -0.0463
     37 C           9.2057   -4.4238    0.0000 C.ar    1  UNL1       -0.0165
     38 C           2.8641   -0.7624    0.0000 C.ar    1  UNL1       -0.0165
     39 C          10.1454    3.4414    0.0000 C.ar    1  UNL1       -0.0165
     40 C          11.0133   -4.3779    0.0000 C.3     1  UNL1       -0.0396
     41 C           2.0000    0.8259    0.0000 C.3     1  UNL1       -0.0396
     42 C           9.2019    4.9839    0.0000 C.3     1  UNL1       -0.0396
     43 H          10.6703   -2.4801    0.0000 H       1  UNL1        0.0627
     44 H           3.8150    1.4778    0.0000 H       1  UNL1        0.0627
     45 H           7.7298    3.7380    0.0000 H       1  UNL1        0.0627
     46 H           9.2034   -5.0438    0.0000 H       1  UNL1        0.0657
     47 H           2.3284   -1.0745    0.0000 H       1  UNL1        0.0657
     48 H          10.6835    3.7494    0.0000 H       1  UNL1        0.0657
     49 H          10.7054   -4.9160    0.0000 H       1  UNL1        0.0278
     50 H          11.5514   -4.6858    0.0000 H       1  UNL1        0.0278
     51 H          11.3213   -3.8398    0.0000 H       1  UNL1        0.0278
     52 H           2.3121    1.3617    0.0000 H       1  UNL1        0.0278
     53 H           1.4643    1.1380    0.0000 H       1  UNL1        0.0278
     54 H           1.6879    0.2902    0.0000 H       1  UNL1        0.0278
     55 H           9.8219    4.9863    0.0000 H       1  UNL1        0.0278
     56 H           9.1995    5.6039    0.0000 H       1  UNL1        0.0278
     57 H           8.5819    4.9816    0.0000 H       1  UNL1        0.0278
     58 H           7.3914   -4.9839    0.0000 H       1  UNL1        0.2922
     59 H           3.2861   -2.6138    0.0000 H       1  UNL1        0.2922
     60 H          11.5377    2.1503    0.0000 H       1  UNL1        0.2922
@<TRIPOS>BOND
     1     1    16    2
     2     2    17    2
     3     3    18    2
     4     4    19    2
     5     5    20    2
     6     6    21    2
     7     7    31    1
     8     7    58    1
     9     8    32    1
    10     8    59    1
    11     9    33    1
    12     9    60    1
    13    10    11   ar
    14    10    13   ar
    15    10    18   ar
    16    11    14   ar
    17    11    17   ar
    18    12    13   ar
    19    12    15   ar
    20    12    16   ar
    21    13    21   ar
    22    14    15   ar
    23    14    20   ar
    24    15    19   ar
    25    16    22   ar
    26    17    23   ar
    27    18    24   ar
    28    19    25   ar
    29    20    26   ar
    30    21    27   ar
    31    22    25   ar
    32    22    28   ar
    33    23    26   ar
    34    23    29   ar
    35    24    27   ar
    36    24    30   ar
    37    25    31   ar
    38    26    32   ar
    39    27    33   ar
    40    28    34   ar
    41    28    43    1
    42    29    35   ar
    43    29    44    1
    44    30    36   ar
    45    30    45    1
    46    31    37   ar
    47    32    38   ar
    48    33    39   ar
    49    34    37   ar
    50    34    40    1
    51    35    38   ar
    52    35    41    1
    53    36    39   ar
    54    36    42    1
    55    37    46    1
    56    38    47    1
    57    39    48    1
    58    40    49    1
    59    40    50    1
    60    40    51    1
    61    41    52    1
    62    41    53    1
    63    41    54    1
    64    42    55    1
    65    42    56    1
    66    42    57    1
