@<TRIPOS>MOLECULE
IMPHY004619
 32 34 0 0 0
SMALL
GASTEIGER

@<TRIPOS>ATOM
      1 O           6.0682   -0.2704    0.0000 O.2     1  UNL1       -0.4507
      2 O           7.8003    1.7296    0.0000 O.3     1  UNL1       -0.5007
      3 O           4.3198    2.7642    0.0000 O.3     1  UNL1       -0.5058
      4 O           6.0682    2.7296    0.0000 O.2     1  UNL1       -0.2830
      5 O           2.5381   -0.2945    0.0000 O.3     1  UNL1       -0.5065
      6 O           8.6663   -2.7704    0.0000 O.3     1  UNL1       -0.5033
      7 O          10.3984   -1.7704    0.0000 O.3     1  UNL1       -0.5033
      8 C           5.2022    1.2296    0.0000 C.ar    1  UNL1        0.1092
      9 C           5.2022    0.2296    0.0000 C.ar    1  UNL1        0.1465
     10 C           6.9343    0.2296    0.0000 C.ar    1  UNL1        0.1807
     11 C           7.8003   -0.2704    0.0000 C.ar    1  UNL1        0.0247
     12 C           6.9343    1.2296    0.0000 C.ar    1  UNL1        0.2082
     13 C           6.0682    1.7296    0.0000 C.ar    1  UNL1        0.2379
     14 C           4.3083    1.7643    0.0000 C.ar    1  UNL1        0.1348
     15 C           4.3083   -0.3051    0.0000 C.ar    1  UNL1        0.0231
     16 C           3.4022    0.2088    0.0000 C.ar    1  UNL1        0.1239
     17 C           7.8003   -1.2704    0.0000 C.ar    1  UNL1       -0.0057
     18 C           3.4022    1.2504    0.0000 C.ar    1  UNL1        0.0223
     19 C           8.6663    0.2296    0.0000 C.ar    1  UNL1       -0.0473
     20 C           8.6663   -1.7704    0.0000 C.ar    1  UNL1        0.1589
     21 C           9.5323   -0.2704    0.0000 C.ar    1  UNL1       -0.0159
     22 C           9.5323   -1.2704    0.0000 C.ar    1  UNL1        0.1583
     23 H           4.3154   -0.9250    0.0000 H       1  UNL1        0.0691
     24 H           7.2634   -1.5804    0.0000 H       1  UNL1        0.0662
     25 H           2.8665    1.5625    0.0000 H       1  UNL1        0.0691
     26 H           8.6663    0.8496    0.0000 H       1  UNL1        0.0626
     27 H          10.0693    0.0396    0.0000 H       1  UNL1        0.0655
     28 H           7.8003    2.3496    0.0000 H       1  UNL1        0.2924
     29 H           3.7865    3.0804    0.0000 H       1  UNL1        0.2922
     30 H           2.0000    0.0134    0.0000 H       1  UNL1        0.2921
     31 H           8.1294   -3.0804    0.0000 H       1  UNL1        0.2923
     32 H          10.9353   -1.4604    0.0000 H       1  UNL1        0.2923
@<TRIPOS>BOND
     1     1     9   ar
     2     1    10   ar
     3     2    12    1
     4     2    28    1
     5     3    14    1
     6     3    29    1
     7     4    13    2
     8     5    16    1
     9     5    30    1
    10     6    20    1
    11     6    31    1
    12     7    22    1
    13     7    32    1
    14     8     9   ar
    15     8    13   ar
    16     8    14   ar
    17     9    15   ar
    18    10    11    1
    19    10    12   ar
    20    11    17   ar
    21    11    19   ar
    22    12    13   ar
    23    14    18   ar
    24    15    16   ar
    25    15    23    1
    26    16    18   ar
    27    17    20   ar
    28    17    24    1
    29    18    25    1
    30    19    21   ar
    31    19    26    1
    32    20    22   ar
    33    21    22   ar
    34    21    27    1
