@<TRIPOS>MOLECULE
IMPHY013856
 53 58 0 0 0
SMALL
GASTEIGER

@<TRIPOS>ATOM
      1 S           2.9379   -3.4320    0.0000 S.O     1  UNL1        0.0219
      2 O           2.6177   -0.2988    0.0000 O.3     1  UNL1       -0.3523
      3 O           5.2683    4.2922    0.0000 O.3     1  UNL1       -0.3671
      4 O           2.0000    2.4800    0.0000 O.3     1  UNL1       -0.4578
      5 O           4.3659   -1.3676    0.0000 O.3     1  UNL1       -0.4520
      6 O           2.0186    4.2375    0.0000 O.2     1  UNL1       -0.2501
      7 O           3.8182   -2.2100    0.0000 O.3     1  UNL1       -0.3842
      8 O           6.1360   -1.3435    0.0000 O.2     1  UNL1       -0.2456
      9 O           3.9379   -3.4435    0.0000 O.2     1  UNL1       -0.2574
     10 C           3.4840    2.2016    0.0000 C.3     1  UNL1        0.0260
     11 C           4.3500    1.7016    0.0000 C.3     1  UNL1        0.0021
     12 C           3.4679    3.2431    0.0000 C.3     1  UNL1        0.1004
     13 C           3.4840    0.2016    0.0000 C.3     1  UNL1        0.1609
     14 C           2.6179    0.7016    0.0000 C.3     1  UNL1        0.1334
     15 C           2.6179    1.7016    0.0000 C.3     1  UNL1        0.1369
     16 C           4.3659    3.7709    0.0000 C.3     1  UNL1        0.1011
     17 C           5.2680    3.2501    0.0000 C.3     1  UNL1        0.0871
     18 C           4.3500    0.7016    0.0000 C.2     1  UNL1       -0.0188
     19 C           5.2600    2.2085    0.0000 C.3     1  UNL1       -0.0145
     20 C           3.4679   -0.8399    0.0000 C.3     1  UNL1        0.1675
     21 C           2.4799    3.3503    0.0000 C.2     1  UNL1        0.3164
     22 C           5.2160    1.2016    0.0000 C.3     1  UNL1       -0.0552
     23 C           2.9579    4.1033    0.0000 C.3     1  UNL1       -0.0465
     24 C           5.2600    0.1948    0.0000 C.2     1  UNL1        0.0252
     25 C           2.9579   -1.7000    0.0000 C.3     1  UNL1        0.1143
     26 C           5.2680   -0.8468    0.0000 C.2     1  UNL1        0.3325
     27 C           2.4479   -2.5602    0.0000 C.3     1  UNL1        0.0553
     28 C           2.0977   -1.1901    0.0000 C.3     1  UNL1       -0.0316
     29 C           2.4279   -4.2922    0.0000 C.3     1  UNL1        0.0118
     30 H           4.2201    2.6266    0.0000 H       1  UNL1        0.0357
     31 H           1.7679    0.7017    0.0000 H       1  UNL1        0.0667
     32 H           2.0325    1.4975    0.0000 H       1  UNL1        0.0765
     33 H           4.0538    4.3066    0.0000 H       1  UNL1        0.0633
     34 H           5.8880    3.2476    0.0000 H       1  UNL1        0.0622
     35 H           5.4645    1.6232    0.0000 H       1  UNL1        0.0299
     36 H           5.8716    2.3099    0.0000 H       1  UNL1        0.0299
     37 H           3.6800   -1.6630    0.0000 H       1  UNL1        0.0797
     38 H           4.9060    0.6647    0.0000 H       1  UNL1        0.0238
     39 H           5.7529    0.8916    0.0000 H       1  UNL1        0.0238
     40 H           5.5260    1.7386    0.0000 H       1  UNL1        0.0238
     41 H           3.4912    4.4195    0.0000 H       1  UNL1        0.0241
     42 H           2.6417    4.6367    0.0000 H       1  UNL1        0.0241
     43 H           2.4246    3.7871    0.0000 H       1  UNL1        0.0241
     44 H           5.7933    0.5110    0.0000 H       1  UNL1        0.0689
     45 H           1.9776   -2.1562    0.0000 H       1  UNL1        0.0430
     46 H           1.9684   -2.9532    0.0000 H       1  UNL1        0.0430
     47 H           2.4139   -0.6568    0.0000 H       1  UNL1        0.0259
     48 H           1.5644   -0.8739    0.0000 H       1  UNL1        0.0259
     49 H           1.7815   -1.7234    0.0000 H       1  UNL1        0.0259
     50 H           3.8110   -2.8300    0.0000 H       1  UNL1        0.2103
     51 H           1.8946   -3.9760    0.0000 H       1  UNL1        0.0365
     52 H           2.1117   -4.8255    0.0000 H       1  UNL1        0.0365
     53 H           2.9612   -4.6084    0.0000 H       1  UNL1        0.0365
@<TRIPOS>BOND
     1     1     9    2
     2     1    27    1
     3     1    29    1
     4    13     2    1
     5     2    14    1
     6    16     3    1
     7    17     3    1
     8     4    15    1
     9     4    21    1
    10     5    20    1
    11     5    26    1
    12     6    21    2
    13    25     7    1
    14     7    50    1
    15     8    26    2
    16    10    11    1
    17    10    12    1
    18    10    15    1
    19    10    30    1
    20    11    18    1
    21    11    19    1
    22    11    22    1
    23    12    16    1
    24    12    21    1
    25    12    23    1
    26    13    14    1
    27    13    18    1
    28    13    20    1
    29    14    15    1
    30    14    31    1
    31    15    32    1
    32    16    17    1
    33    16    33    1
    34    17    19    1
    35    17    34    1
    36    18    24    2
    37    19    35    1
    38    19    36    1
    39    20    25    1
    40    20    37    1
    41    22    38    1
    42    22    39    1
    43    22    40    1
    44    23    41    1
    45    23    42    1
    46    23    43    1
    47    24    26    1
    48    24    44    1
    49    25    27    1
    50    25    28    1
    51    27    45    1
    52    27    46    1
    53    28    47    1
    54    28    48    1
    55    28    49    1
    56    29    51    1
    57    29    52    1
    58    29    53    1
