@<TRIPOS>MOLECULE
IMPHY017076
 19 20 0 0 0
SMALL
GASTEIGER

@<TRIPOS>ATOM
      1 N           5.5443   -0.6077    0.0000 N.ar    1  UNL1       -0.3606
      2 C           4.5981   -0.3030    0.0000 C.ar    1  UNL1        0.0467
      3 C           4.5981    0.6970    0.0000 C.ar    1  UNL1       -0.0003
      4 C           2.8660   -0.3030    0.0000 C.ar    1  UNL1       -0.0485
      5 C           3.7320   -0.8030    0.0000 C.ar    1  UNL1       -0.0349
      6 C           3.7320    1.1970    0.0000 C.ar    1  UNL1       -0.0523
      7 C           5.5443    1.0018    0.0000 C.ar    1  UNL1       -0.0367
      8 C           2.8660    0.6970    0.0000 C.ar    1  UNL1       -0.0582
      9 C           6.1279    0.1970    0.0000 C.ar    1  UNL1        0.0027
     10 C           2.0000   -0.8030    0.0000 C.3     1  UNL1       -0.0396
     11 H           3.7320   -1.4230    0.0000 H       1  UNL1        0.0641
     12 H           3.7320    1.8170    0.0000 H       1  UNL1        0.0624
     13 H           5.7369   -1.1970    0.0000 H       1  UNL1        0.1653
     14 H           5.7369    1.5911    0.0000 H       1  UNL1        0.0638
     15 H           2.3291    1.0070    0.0000 H       1  UNL1        0.0620
     16 H           6.7479    0.1970    0.0000 H       1  UNL1        0.0807
     17 H           1.6900   -0.2660    0.0000 H       1  UNL1        0.0278
     18 H           1.4631   -1.1130    0.0000 H       1  UNL1        0.0278
     19 H           2.3100   -1.3399    0.0000 H       1  UNL1        0.0278
@<TRIPOS>BOND
     1     1     2   ar
     2     1     9   ar
     3     1    13    1
     4     2     3   ar
     5     2     5   ar
     6     3     6   ar
     7     3     7   ar
     8     4     5   ar
     9     4     8   ar
    10     4    10    1
    11     5    11    1
    12     6     8   ar
    13     6    12    1
    14     7     9   ar
    15     7    14    1
    16     8    15    1
    17     9    16    1
    18    10    17    1
    19    10    18    1
    20    10    19    1
