@<TRIPOS>MOLECULE
IMPHY009823
 12 12 0 0 0
SMALL
GASTEIGER

@<TRIPOS>ATOM
      1 O           2.8090   -0.7694    0.0000 O.3     1  UNL1       -0.4646
      2 O           4.5691   -0.4907    0.0000 O.2     1  UNL1       -0.2509
      3 C           2.3090    0.7694    0.0000 C.3     1  UNL1       -0.0085
      4 C           3.3090    0.7694    0.0000 C.3     1  UNL1        0.0480
      5 C           2.0000   -0.1816    0.0000 C.3     1  UNL1        0.0930
      6 C           3.6180   -0.1816    0.0000 C.2     1  UNL1        0.3072
      7 H           2.3738    1.3860    0.0000 H       1  UNL1        0.0303
      8 H           1.7026    0.8983    0.0000 H       1  UNL1        0.0303
      9 H           3.9155    0.8983    0.0000 H       1  UNL1        0.0379
     10 H           3.2442    1.3860    0.0000 H       1  UNL1        0.0379
     11 H           1.4336    0.0705    0.0000 H       1  UNL1        0.0697
     12 H           1.6900   -0.7186    0.0000 H       1  UNL1        0.0697
@<TRIPOS>BOND
     1     1     5    1
     2     1     6    1
     3     2     6    2
     4     3     4    1
     5     3     5    1
     6     3     7    1
     7     3     8    1
     8     4     6    1
     9     4     9    1
    10     4    10    1
    11     5    11    1
    12     5    12    1
