@<TRIPOS>MOLECULE
IMPHY012113
 20 18 0 0 0
SMALL
GASTEIGER

@<TRIPOS>ATOM
      1 O           1.3360    0.0000    0.0000 O.co2   1  HOH1       -0.8710
      2 N           1.4030    3.9030    0.0000 N.pl3   2  UNL2       -0.3895
      3 C           0.5369    3.4030    0.0000 C.3     2  UNL2        0.0807
      4 C           0.9030    4.7690    0.0000 C.3     2  UNL2        0.0807
      5 C           1.9030    3.0369    0.0000 C.3     2  UNL2        0.0807
      6 C           2.2690    4.4030    0.0000 C.2     2  UNL2        0.1014
      7 C           3.1350    3.9030    0.0000 C.2     2  UNL2       -0.0408
      8 H           0.2269    3.9399    0.0000 H       2  UNL2        0.0931
      9 H           0.0000    3.0930    0.0000 H       2  UNL2        0.0931
     10 H           0.8469    2.8660    0.0000 H       2  UNL2        0.0931
     11 H           1.4399    5.0790    0.0000 H       2  UNL2        0.0931
     12 H           0.5930    5.3059    0.0000 H       2  UNL2        0.0931
     13 H           0.3660    4.4590    0.0000 H       2  UNL2        0.0931
     14 H           1.3660    2.7269    0.0000 H       2  UNL2        0.0931
     15 H           2.2130    2.5000    0.0000 H       2  UNL2        0.0931
     16 H           2.4399    3.3469    0.0000 H       2  UNL2        0.0931
     17 H           2.2690    5.0230    0.0000 H       2  UNL2        0.1306
     18 H           3.1350    3.2830    0.0000 H       2  UNL2        0.0591
     19 H           3.6720    4.2130    0.0000 H       2  UNL2        0.0591
     20 H           2.3360    0.0000    0.0000 H       0  HOH0       -0.1290
@<TRIPOS>UNITY_ATOM_ATTR
1 1
charge -1
2 1
charge 1
@<TRIPOS>BOND
     1     1    20    1
     2     2     3    1
     3     2     4    1
     4     2     5    1
     5     2     6    1
     6     3     8    1
     7     3     9    1
     8     3    10    1
     9     4    11    1
    10     4    12    1
    11     4    13    1
    12     5    14    1
    13     5    15    1
    14     5    16    1
    15     6     7    2
    16     6    17    1
    17     7    18    1
    18     7    19    1
