@<TRIPOS>MOLECULE
IMPHY014591
 51 55 0 0 0
SMALL
GASTEIGER

@<TRIPOS>ATOM
      1 O           7.9916    2.2407    0.0000 O.3     1  UNL1       -0.3908
      2 O           2.6079    0.4025    0.0000 O.3     1  UNL1       -0.4526
      3 O           2.6079    2.0790    0.0000 O.3     1  UNL1       -0.4526
      4 O           8.9752   -2.3574    0.0000 O.3     1  UNL1       -0.4908
      5 O          10.7866   -1.3116    0.0000 O.3     1  UNL1       -0.4914
      6 N           6.2435   -0.8008    0.0000 N.pl3   1  UNL1       -0.3251
      7 C           7.1256    0.7407    0.0000 C.3     1  UNL1        0.0338
      8 C           6.2596    0.2407    0.0000 C.3     1  UNL1        0.0579
      9 C           7.1256    1.7408    0.0000 C.3     1  UNL1        0.0680
     10 C           5.3935    0.7407    0.0000 C.ar    1  UNL1       -0.0195
     11 C           6.2596    2.2407    0.0000 C.3     1  UNL1       -0.0005
     12 C           8.0356    0.2339    0.0000 C.ar    1  UNL1       -0.0271
     13 C           5.3935    1.7408    0.0000 C.ar    1  UNL1       -0.0363
     14 C           8.0436   -0.8077    0.0000 C.ar    1  UNL1        0.0443
     15 C           7.1415   -1.3285    0.0000 C.2     1  UNL1        0.0339
     16 C           4.4996    0.2061    0.0000 C.ar    1  UNL1       -0.0109
     17 C           4.4996    2.2754    0.0000 C.ar    1  UNL1       -0.0126
     18 C           8.9624    0.7980    0.0000 C.ar    1  UNL1       -0.0538
     19 C           5.3717   -1.2907    0.0000 C.3     1  UNL1        0.0013
     20 C           8.9790   -1.3574    0.0000 C.ar    1  UNL1        0.1706
     21 C           3.5935    0.7199    0.0000 C.ar    1  UNL1        0.1666
     22 C           3.5935    1.7616    0.0000 C.ar    1  UNL1        0.1665
     23 C           9.9103    0.2700    0.0000 C.ar    1  UNL1       -0.0160
     24 C           9.9187   -0.8149    0.0000 C.ar    1  UNL1        0.1622
     25 C           7.1377   -2.3285    0.0000 C.2     1  UNL1       -0.0768
     26 C           2.0000    1.2408    0.0000 C.3     1  UNL1        0.2332
     27 C           9.8393   -2.8608    0.0000 C.3     1  UNL1        0.0790
     28 C          11.6507   -0.8082    0.0000 C.3     1  UNL1        0.0790
     29 H           7.8584    1.1714    0.0000 H       1  UNL1        0.0396
     30 H           5.5202   -0.1786    0.0000 H       1  UNL1        0.0556
     31 H           7.1256    2.3608    0.0000 H       1  UNL1        0.0603
     32 H           6.6581    2.7157    0.0000 H       1  UNL1        0.0338
     33 H           5.8610    2.7157    0.0000 H       1  UNL1        0.0338
     34 H           4.5068   -0.4139    0.0000 H       1  UNL1        0.0659
     35 H           4.5068    2.8954    0.0000 H       1  UNL1        0.0658
     36 H           8.9505    1.4179    0.0000 H       1  UNL1        0.0622
     37 H           5.0680   -0.7502    0.0000 H       1  UNL1        0.0428
     38 H           4.8313   -1.5945    0.0000 H       1  UNL1        0.0428
     39 H           5.6755   -1.8312    0.0000 H       1  UNL1        0.0428
     40 H           7.9916    2.8608    0.0000 H       1  UNL1        0.2098
     41 H          10.4436    0.5862    0.0000 H       1  UNL1        0.0655
     42 H           6.5996   -2.6364    0.0000 H       1  UNL1        0.0553
     43 H           7.6734   -2.6406    0.0000 H       1  UNL1        0.0553
     44 H           1.5391    1.6555    0.0000 H       1  UNL1        0.1166
     45 H           1.5391    0.8260    0.0000 H       1  UNL1        0.1166
     46 H           9.5272   -3.3965    0.0000 H       1  UNL1        0.0660
     47 H          10.3750   -3.1728    0.0000 H       1  UNL1        0.0660
     48 H          10.1513   -2.3250    0.0000 H       1  UNL1        0.0660
     49 H          11.9628   -1.3440    0.0000 H       1  UNL1        0.0660
     50 H          12.1864   -0.4962    0.0000 H       1  UNL1        0.0660
     51 H          11.3386   -0.2725    0.0000 H       1  UNL1        0.0660
@<TRIPOS>BOND
     1     9     1    1
     2     1    40    1
     3     2    21    1
     4     2    26    1
     5     3    22    1
     6     3    26    1
     7     4    20    1
     8     4    27    1
     9     5    24    1
    10     5    28    1
    11     6     8    1
    12     6    15    1
    13     6    19    1
    14     7     8    1
    15     7     9    1
    16     7    12    1
    17     7    29    1
    18     8    10    1
    19     8    30    1
    20     9    11    1
    21     9    31    1
    22    10    13   ar
    23    10    16   ar
    24    11    13    1
    25    11    32    1
    26    11    33    1
    27    12    14   ar
    28    12    18   ar
    29    13    17   ar
    30    14    15    1
    31    14    20   ar
    32    15    25    2
    33    16    21   ar
    34    16    34    1
    35    17    22   ar
    36    17    35    1
    37    18    23   ar
    38    18    36    1
    39    19    37    1
    40    19    38    1
    41    19    39    1
    42    20    24   ar
    43    21    22   ar
    44    23    24   ar
    45    23    41    1
    46    25    42    1
    47    25    43    1
    48    26    44    1
    49    26    45    1
    50    27    46    1
    51    27    47    1
    52    27    48    1
    53    28    49    1
    54    28    50    1
    55    28    51    1
