@<TRIPOS>MOLECULE
IMPHY001655
 34 35 0 0 0
SMALL
GASTEIGER

@<TRIPOS>ATOM
      1 O           4.5981    0.5000    0.0000 O.3     1  UNL1       -0.4476
      2 O           6.3301   -0.5000    0.0000 O.3     1  UNL1       -0.5008
      3 O           4.5981    2.5000    0.0000 O.3     1  UNL1       -0.5009
      4 O           6.3301   -2.5000    0.0000 O.3     1  UNL1       -0.5008
      5 O           4.5981   -3.5000    0.0000 O.3     1  UNL1       -0.5032
      6 O           6.3301    3.5000    0.0000 O.3     1  UNL1       -0.5032
      7 O           2.0000   -1.0000    0.0000 O.3     1  UNL1       -0.4770
      8 O           2.8660    0.5000    0.0000 O.2     1  UNL1       -0.2450
      9 O           8.9282    1.0000    0.0000 O.3     1  UNL1       -0.4771
     10 O           8.0622   -0.5000    0.0000 O.2     1  UNL1       -0.2451
     11 C           4.5981   -0.5000    0.0000 C.ar    1  UNL1        0.1876
     12 C           3.7320   -1.0000    0.0000 C.ar    1  UNL1        0.1083
     13 C           5.4641    1.0000    0.0000 C.ar    1  UNL1        0.1743
     14 C           5.4641   -1.0000    0.0000 C.ar    1  UNL1        0.2060
     15 C           3.7320   -2.0000    0.0000 C.ar    1  UNL1        0.0013
     16 C           5.4641    2.0000    0.0000 C.ar    1  UNL1        0.2015
     17 C           5.4641   -2.0000    0.0000 C.ar    1  UNL1        0.2044
     18 C           6.3301    0.5000    0.0000 C.ar    1  UNL1       -0.0015
     19 C           4.5981   -2.5000    0.0000 C.ar    1  UNL1        0.1630
     20 C           7.1962    1.0000    0.0000 C.ar    1  UNL1        0.0660
     21 C           6.3301    2.5000    0.0000 C.ar    1  UNL1        0.1628
     22 C           7.1962    2.0000    0.0000 C.ar    1  UNL1       -0.0023
     23 C           2.8660   -0.5000    0.0000 C.2     1  UNL1        0.3406
     24 C           8.0622    0.5000    0.0000 C.2     1  UNL1        0.3370
     25 H           3.1951   -2.3100    0.0000 H       1  UNL1        0.0665
     26 H           6.3301   -0.1200    0.0000 H       1  UNL1        0.0664
     27 H           7.7331    2.3100    0.0000 H       1  UNL1        0.0663
     28 H           6.8671   -0.8100    0.0000 H       1  UNL1        0.2924
     29 H           6.3301   -3.1200    0.0000 H       1  UNL1        0.2924
     30 H           4.5981    3.1200    0.0000 H       1  UNL1        0.2924
     31 H           4.0611   -3.8100    0.0000 H       1  UNL1        0.2923
     32 H           6.8671    3.8100    0.0000 H       1  UNL1        0.2923
     33 H           2.0000   -1.6200    0.0000 H       1  UNL1        0.2954
     34 H           9.4651    0.6900    0.0000 H       1  UNL1        0.2954
@<TRIPOS>BOND
     1     1    11    1
     2     1    13    1
     3     2    14    1
     4     2    28    1
     5     3    16    1
     6     3    30    1
     7     4    17    1
     8     4    29    1
     9     5    19    1
    10     5    31    1
    11     6    21    1
    12     6    32    1
    13     7    23    1
    14     7    33    1
    15     8    23    2
    16     9    24    1
    17     9    34    1
    18    10    24    2
    19    11    12   ar
    20    11    14   ar
    21    12    15   ar
    22    12    23    1
    23    13    16   ar
    24    13    18   ar
    25    14    17   ar
    26    15    19   ar
    27    15    25    1
    28    16    21   ar
    29    17    19   ar
    30    18    20   ar
    31    18    26    1
    32    20    22   ar
    33    20    24    1
    34    21    22   ar
    35    22    27    1
