@<TRIPOS>MOLECULE
IMPHY013202
 47 47 0 0 0
SMALL
GASTEIGER

@<TRIPOS>ATOM
      1 O           2.8660    3.0000    0.0000 O.3     1  UNL1       -0.3918
      2 O           2.0000   -3.5000    0.0000 O.3     1  UNL1       -0.4647
      3 O           3.7320   -3.5000    0.0000 O.2     1  UNL1       -0.2453
      4 C           2.8660   -0.0000    0.0000 C.3     1  UNL1       -0.0346
      5 C           2.8660    1.0000    0.0000 C.3     1  UNL1       -0.0384
      6 C           2.0000   -0.5000    0.0000 C.3     1  UNL1       -0.0455
      7 C           3.7320    1.5000    0.0000 C.3     1  UNL1       -0.0240
      8 C           3.7320   -0.5000    0.0000 C.3     1  UNL1       -0.0309
      9 C           3.7320    2.5000    0.0000 C.3     1  UNL1        0.0557
     10 C           2.0000   -1.5000    0.0000 C.3     1  UNL1       -0.0210
     11 C           2.0000    1.5000    0.0000 C.3     1  UNL1       -0.0621
     12 C           4.5981    3.0000    0.0000 C.3     1  UNL1       -0.0245
     13 C           3.7320   -1.5000    0.0000 C.2     1  UNL1       -0.0738
     14 C           2.8660   -2.0000    0.0000 C.2     1  UNL1        0.0327
     15 C           4.5981    4.0000    0.0000 C.3     1  UNL1       -0.0444
     16 C           5.4641    4.5000    0.0000 C.3     1  UNL1       -0.0626
     17 C           3.7320    4.5000    0.0000 C.3     1  UNL1       -0.0626
     18 C           2.8660   -3.0000    0.0000 C.2     1  UNL1        0.3346
     19 C           2.0000   -4.5000    0.0000 C.3     1  UNL1        0.0820
     20 H           3.6022    0.4250    0.0000 H       1  UNL1        0.0306
     21 H           2.8660    1.6200    0.0000 H       1  UNL1        0.0302
     22 H           1.7880    0.0826    0.0000 H       1  UNL1        0.0271
     23 H           1.3894   -0.6077    0.0000 H       1  UNL1        0.0271
     24 H           3.9441    0.9174    0.0000 H       1  UNL1        0.0293
     25 H           4.3426    1.6077    0.0000 H       1  UNL1        0.0293
     26 H           4.3426   -0.6077    0.0000 H       1  UNL1        0.0310
     27 H           3.9441    0.0826    0.0000 H       1  UNL1        0.0310
     28 H           3.7320    3.1200    0.0000 H       1  UNL1        0.0593
     29 H           1.3894   -1.3923    0.0000 H       1  UNL1        0.0315
     30 H           1.7880   -2.0826    0.0000 H       1  UNL1        0.0315
     31 H           2.3100    2.0369    0.0000 H       1  UNL1        0.0233
     32 H           1.4631    1.8100    0.0000 H       1  UNL1        0.0233
     33 H           1.6900    0.9631    0.0000 H       1  UNL1        0.0233
     34 H           4.8101    2.4174    0.0000 H       1  UNL1        0.0293
     35 H           5.2087    3.1077    0.0000 H       1  UNL1        0.0293
     36 H           4.2690   -1.8100    0.0000 H       1  UNL1        0.0577
     37 H           4.5981    4.6200    0.0000 H       1  UNL1        0.0296
     38 H           2.8660    3.6200    0.0000 H       1  UNL1        0.2098
     39 H           5.7741    3.9631    0.0000 H       1  UNL1        0.0232
     40 H           6.0010    4.8100    0.0000 H       1  UNL1        0.0232
     41 H           5.1541    5.0369    0.0000 H       1  UNL1        0.0232
     42 H           4.0420    5.0369    0.0000 H       1  UNL1        0.0232
     43 H           3.1951    4.8100    0.0000 H       1  UNL1        0.0232
     44 H           3.4220    3.9631    0.0000 H       1  UNL1        0.0232
     45 H           1.3800   -4.5000    0.0000 H       1  UNL1        0.0661
     46 H           2.0000   -5.1200    0.0000 H       1  UNL1        0.0661
     47 H           2.6200   -4.5000    0.0000 H       1  UNL1        0.0661
@<TRIPOS>BOND
     1     9     1    1
     2     1    38    1
     3     2    18    1
     4     2    19    1
     5     3    18    2
     6     4     5    1
     7     4     6    1
     8     4     8    1
     9     4    20    1
    10     5     7    1
    11     5    11    1
    12     5    21    1
    13     6    10    1
    14     6    22    1
    15     6    23    1
    16     7     9    1
    17     7    24    1
    18     7    25    1
    19     8    13    1
    20     8    26    1
    21     8    27    1
    22     9    12    1
    23     9    28    1
    24    10    14    1
    25    10    29    1
    26    10    30    1
    27    11    31    1
    28    11    32    1
    29    11    33    1
    30    12    15    1
    31    12    34    1
    32    12    35    1
    33    13    14    2
    34    13    36    1
    35    14    18    1
    36    15    16    1
    37    15    17    1
    38    15    37    1
    39    16    39    1
    40    16    40    1
    41    16    41    1
    42    17    42    1
    43    17    43    1
    44    17    44    1
    45    19    45    1
    46    19    46    1
    47    19    47    1
