@<TRIPOS>MOLECULE
IMPHY015185
 19 21 0 0 0
SMALL
GASTEIGER

@<TRIPOS>ATOM
      1 C           4.5037   -0.8134    0.0000 C.ar    1  UNL1       -0.0319
      2 C           5.3302   -1.3772    0.0000 C.3     1  UNL1       -0.0013
      3 C           5.4047   -0.3795    0.0000 C.ar    1  UNL1       -0.0390
      4 C           3.6027   -0.3795    0.0000 C.ar    1  UNL1       -0.0141
      5 C           3.3802    0.5954    0.0000 C.ar    1  UNL1       -0.0176
      6 C           5.6272    0.5954    0.0000 C.ar    1  UNL1       -0.0580
      7 C           2.7480   -0.8872    0.0000 C.ar    1  UNL1       -0.0537
      8 C           4.0037    1.3772    0.0000 C.ar    1  UNL1       -0.0540
      9 C           5.0037    1.3772    0.0000 C.ar    1  UNL1       -0.0609
     10 C           2.3899    0.6819    0.0000 C.ar    1  UNL1       -0.0540
     11 C           2.0000   -0.2325    0.0000 C.ar    1  UNL1       -0.0606
     12 H           5.0751   -1.9423    0.0000 H       1  UNL1        0.0362
     13 H           5.9310   -1.5301    0.0000 H       1  UNL1        0.0362
     14 H           6.2316    0.7333    0.0000 H       1  UNL1        0.0620
     15 H           2.6914   -1.5046    0.0000 H       1  UNL1        0.0624
     16 H           3.7347    1.9358    0.0000 H       1  UNL1        0.0624
     17 H           2.0710    1.2136    0.0000 H       1  UNL1        0.0624
     18 H           5.2727    1.9358    0.0000 H       1  UNL1        0.0618
     19 H           1.3955   -0.3705    0.0000 H       1  UNL1        0.0618
@<TRIPOS>BOND
     1     1     2    1
     2     1     3   ar
     3     1     4   ar
     4     2     3    1
     5     2    12    1
     6     2    13    1
     7     3     6   ar
     8     4     5    1
     9     4     7   ar
    10     5     8   ar
    11     5    10   ar
    12     6     9   ar
    13     6    14    1
    14     7    11   ar
    15     7    15    1
    16     8     9   ar
    17     8    16    1
    18     9    18    1
    19    10    11   ar
    20    10    17    1
    21    11    19    1
