@<TRIPOS>MOLECULE
IMPHY012988
 51 53 0 0 0
SMALL
GASTEIGER

@<TRIPOS>ATOM
      1 O           7.1962    0.7500    0.0000 O.3     1  UNL1       -0.4792
      2 O           8.9282    1.7500    0.0000 O.3     1  UNL1       -0.3835
      3 O          12.4725    0.5547    0.0000 O.3     1  UNL1       -0.4526
      4 O          12.4725   -1.0547    0.0000 O.3     1  UNL1       -0.4526
      5 O           7.1962   -1.2500    0.0000 O.3     1  UNL1       -0.4913
      6 O           5.4641    1.7500    0.0000 O.3     1  UNL1       -0.4913
      7 C           8.9282    0.7500    0.0000 C.3     1  UNL1        0.1167
      8 C           8.0622    0.2500    0.0000 C.3     1  UNL1        0.1276
      9 C           9.7942    0.2500    0.0000 C.ar    1  UNL1       -0.0120
     10 C           8.0622   -0.7500    0.0000 C.3     1  UNL1       -0.0250
     11 C          10.6603    0.7500    0.0000 C.ar    1  UNL1       -0.0104
     12 C           9.7942   -0.7500    0.0000 C.ar    1  UNL1       -0.0523
     13 C           6.3301    0.2500    0.0000 C.ar    1  UNL1        0.2041
     14 C          11.5263    0.2500    0.0000 C.ar    1  UNL1        0.1666
     15 C          11.5263   -0.7500    0.0000 C.ar    1  UNL1        0.1662
     16 C          10.6603   -1.2500    0.0000 C.ar    1  UNL1       -0.0158
     17 C           6.3301   -0.7500    0.0000 C.ar    1  UNL1        0.1655
     18 C           5.4641    0.7500    0.0000 C.ar    1  UNL1        0.1655
     19 C           4.5981   -0.7500    0.0000 C.ar    1  UNL1       -0.0365
     20 C           5.4641   -1.2500    0.0000 C.ar    1  UNL1       -0.0126
     21 C           4.5981    0.2500    0.0000 C.ar    1  UNL1       -0.0126
     22 C          13.0561   -0.2500    0.0000 C.3     1  UNL1        0.2332
     23 C           3.7320   -1.2500    0.0000 C.3     1  UNL1       -0.0095
     24 C           2.8660   -0.7500    0.0000 C.2     1  UNL1       -0.0868
     25 C           7.1962   -2.2500    0.0000 C.3     1  UNL1        0.0790
     26 C           4.5981    2.2500    0.0000 C.3     1  UNL1        0.0790
     27 C           2.0000   -1.2500    0.0000 C.2     1  UNL1       -0.1023
     28 H           9.4651    1.0600    0.0000 H       1  UNL1        0.0681
     29 H           8.0622    0.8700    0.0000 H       1  UNL1        0.0760
     30 H           7.4422   -0.7500    0.0000 H       1  UNL1        0.0266
     31 H           8.0622   -1.3700    0.0000 H       1  UNL1        0.0266
     32 H           8.6822   -0.7500    0.0000 H       1  UNL1        0.0266
     33 H          10.6603    1.3700    0.0000 H       1  UNL1        0.0659
     34 H           9.2573   -1.0600    0.0000 H       1  UNL1        0.0622
     35 H          10.6603   -1.8700    0.0000 H       1  UNL1        0.0655
     36 H           8.3913    2.0600    0.0000 H       1  UNL1        0.2104
     37 H           5.4641   -1.8700    0.0000 H       1  UNL1        0.0658
     38 H           4.0611    0.5600    0.0000 H       1  UNL1        0.0658
     39 H          13.5170   -0.6647    0.0000 H       1  UNL1        0.1166
     40 H          13.5170    0.1647    0.0000 H       1  UNL1        0.1166
     41 H           3.3335   -1.7250    0.0000 H       1  UNL1        0.0355
     42 H           4.1306   -1.7250    0.0000 H       1  UNL1        0.0355
     43 H           2.8660   -0.1300    0.0000 H       1  UNL1        0.0570
     44 H           6.5762   -2.2500    0.0000 H       1  UNL1        0.0660
     45 H           7.1962   -2.8700    0.0000 H       1  UNL1        0.0660
     46 H           7.8162   -2.2500    0.0000 H       1  UNL1        0.0660
     47 H           4.9081    2.7869    0.0000 H       1  UNL1        0.0660
     48 H           4.0611    2.5600    0.0000 H       1  UNL1        0.0660
     49 H           4.2881    1.7131    0.0000 H       1  UNL1        0.0660
     50 H           1.4631   -0.9400    0.0000 H       1  UNL1        0.0532
     51 H           2.0000   -1.8700    0.0000 H       1  UNL1        0.0532
@<TRIPOS>BOND
     1     1     8    1
     2     1    13    1
     3     2     7    1
     4     2    36    1
     5     3    14    1
     6     3    22    1
     7     4    15    1
     8     4    22    1
     9     5    17    1
    10     5    25    1
    11     6    18    1
    12     6    26    1
    13     7     8    1
    14     7     9    1
    15     7    28    1
    16     8    10    1
    17     8    29    1
    18     9    11   ar
    19     9    12   ar
    20    10    30    1
    21    10    31    1
    22    10    32    1
    23    11    14   ar
    24    11    33    1
    25    12    16   ar
    26    12    34    1
    27    13    17   ar
    28    13    18   ar
    29    14    15   ar
    30    15    16   ar
    31    16    35    1
    32    17    20   ar
    33    18    21   ar
    34    19    20   ar
    35    19    21   ar
    36    19    23    1
    37    20    37    1
    38    21    38    1
    39    22    39    1
    40    22    40    1
    41    23    24    1
    42    23    41    1
    43    23    42    1
    44    24    27    2
    45    24    43    1
    46    25    44    1
    47    25    45    1
    48    25    46    1
    49    26    47    1
    50    26    48    1
    51    26    49    1
    52    27    50    1
    53    27    51    1
