@<TRIPOS>MOLECULE
IMPHY001155
 143 150 0 0 0
SMALL
GASTEIGER

@<TRIPOS>ATOM
      1 O          18.6473    2.3051    0.0000 O.3     1  UNL1       -0.3876
      2 O          17.7678   -1.1916    0.0000 O.3     1  UNL1       -0.4572
      3 O          20.8693   -1.1650    0.0000 O.3     1  UNL1       -0.4615
      4 O          13.2583    3.3782    0.0000 O.3     1  UNL1       -0.3477
      5 O          16.0358   -1.1849    0.0000 O.2     1  UNL1       -0.2450
      6 O          11.5263    3.3782    0.0000 O.3     1  UNL1       -0.3456
      7 O          20.5056   -2.8584    0.0000 O.2     1  UNL1       -0.2512
      8 O          11.5263    0.3782    0.0000 O.3     1  UNL1       -0.3770
      9 O           9.7942    1.3782    0.0000 O.3     1  UNL1       -0.3429
     10 O           8.9282    2.8782    0.0000 O.3     1  UNL1       -0.3456
     11 O           6.3301    1.3782    0.0000 O.3     1  UNL1       -0.3770
     12 O           6.3301    3.3782    0.0000 O.3     1  UNL1       -0.3403
     13 O           5.4641    1.8782    0.0000 O.3     1  UNL1       -0.3431
     14 O           4.5981    4.3782    0.0000 O.3     1  UNL1       -0.3841
     15 O           2.8660    3.3782    0.0000 O.3     1  UNL1       -0.3744
     16 O           2.8660    1.3782    0.0000 O.3     1  UNL1       -0.3866
     17 C          18.6396    0.3051    0.0000 C.3     1  UNL1        0.0401
     18 C          18.6435    1.3051    0.0000 C.3     1  UNL1        0.0785
     19 C          17.7794    1.8084    0.0000 C.3     1  UNL1       -0.0043
     20 C          16.9114    1.3118    0.0000 C.3     1  UNL1       -0.0229
     21 C          19.5846   -0.0033    0.0000 C.3     1  UNL1        0.0074
     22 C          17.7717   -0.1916    0.0000 C.3     1  UNL1        0.1120
     23 C          16.0034    1.8221    0.0000 C.3     1  UNL1       -0.0076
     24 C          19.5909    1.6062    0.0000 C.3     1  UNL1       -0.0227
     25 C          16.9076    0.3118    0.0000 C.3     1  UNL1       -0.0111
     26 C          20.1714    0.7992    0.0000 C.3     1  UNL1       -0.0435
     27 C          17.7994    2.8499    0.0000 C.3     1  UNL1       -0.0287
     28 C          18.6358   -0.6949    0.0000 C.3     1  UNL1       -0.0532
     29 C          15.9994    2.8637    0.0000 C.2     1  UNL1       -0.0648
     30 C          19.8916   -0.9550    0.0000 C.3     1  UNL1        0.1038
     31 C          15.0744    1.2616    0.0000 C.3     1  UNL1       -0.0413
     32 C          16.9035    3.3811    0.0000 C.2     1  UNL1       -0.0838
     33 C          16.0072    0.8221    0.0000 C.3     1  UNL1       -0.0556
     34 C          15.0661    3.4171    0.0000 C.3     1  UNL1       -0.0047
     35 C          14.1285    1.7932    0.0000 C.3     1  UNL1       -0.0254
     36 C          14.1244    2.8782    0.0000 C.3     1  UNL1        0.0654
     37 C          19.2209   -1.6967    0.0000 C.3     1  UNL1       -0.0274
     38 C          16.8999   -1.6882    0.0000 C.2     1  UNL1        0.3395
     39 C          21.1763   -2.1167    0.0000 C.2     1  UNL1        0.3042
     40 C          12.3923    2.8782    0.0000 C.3     1  UNL1        0.1624
     41 C          16.8960   -2.6882    0.0000 C.ar    1  UNL1        0.0590
     42 C          12.3923    1.8782    0.0000 C.3     1  UNL1        0.0272
     43 C          22.1540   -2.3267    0.0000 C.3     1  UNL1        0.0332
     44 C          11.5263    1.3782    0.0000 C.3     1  UNL1        0.0915
     45 C          16.0281   -3.1849    0.0000 C.ar    1  UNL1       -0.0478
     46 C          17.7601   -3.1915    0.0000 C.ar    1  UNL1       -0.0478
     47 C          10.6603    2.8782    0.0000 C.3     1  UNL1        0.0875
     48 C          10.6603    1.8782    0.0000 C.3     1  UNL1        0.1137
     49 C          16.0242   -4.1849    0.0000 C.ar    1  UNL1       -0.0610
     50 C          17.7562   -4.1915    0.0000 C.ar    1  UNL1       -0.0610
     51 C           9.7942    3.3782    0.0000 C.3     1  UNL1       -0.0361
     52 C          16.8883   -4.6882    0.0000 C.ar    1  UNL1       -0.0617
     53 C           8.9282    1.8782    0.0000 C.3     1  UNL1        0.1626
     54 C          12.3923   -0.1218    0.0000 C.3     1  UNL1        0.0369
     55 C           8.0622    1.3782    0.0000 C.3     1  UNL1        0.0272
     56 C           7.1962    1.8782    0.0000 C.3     1  UNL1        0.0915
     57 C           8.0622    3.3782    0.0000 C.3     1  UNL1        0.0875
     58 C           7.1962    2.8782    0.0000 C.3     1  UNL1        0.1138
     59 C           8.0622    4.3782    0.0000 C.3     1  UNL1       -0.0361
     60 C           5.4641    2.8782    0.0000 C.3     1  UNL1        0.1883
     61 C           4.5981    3.3782    0.0000 C.3     1  UNL1        0.1344
     62 C           6.3301    0.3782    0.0000 C.3     1  UNL1        0.0369
     63 C           3.7320    2.8782    0.0000 C.3     1  UNL1        0.1170
     64 C           4.5981    1.3782    0.0000 C.3     1  UNL1        0.0873
     65 C           3.7320    1.8782    0.0000 C.3     1  UNL1        0.1097
     66 C           4.5981    0.3782    0.0000 C.3     1  UNL1       -0.0361
     67 C           2.0000    2.8782    0.0000 C.3     1  UNL1        0.0370
     68 H          18.5204    2.2249    0.0000 H       1  UNL1        0.0335
     69 H          17.6459    0.8839    0.0000 H       1  UNL1        0.0314
     70 H          20.1968   -0.1018    0.0000 H       1  UNL1        0.0344
     71 H          17.2335   -0.4995    0.0000 H       1  UNL1        0.0740
     72 H          20.1294    1.9133    0.0000 H       1  UNL1        0.0293
     73 H          19.3420    2.1740    0.0000 H       1  UNL1        0.0293
     74 H          16.2974    0.4218    0.0000 H       1  UNL1        0.0304
     75 H          16.6933   -0.2700    0.0000 H       1  UNL1        0.0304
     76 H          20.6306    0.3827    0.0000 H       1  UNL1        0.0270
     77 H          20.6338    1.2121    0.0000 H       1  UNL1        0.0270
     78 H          18.4081    2.7320    0.0000 H       1  UNL1        0.0311
     79 H          18.0197    3.4294    0.0000 H       1  UNL1        0.0311
     80 H          18.0158   -0.6925    0.0000 H       1  UNL1        0.0237
     81 H          18.6334   -1.3149    0.0000 H       1  UNL1        0.0237
     82 H          19.2558   -0.6973    0.0000 H       1  UNL1        0.0237
     83 H          20.0820   -1.5450    0.0000 H       1  UNL1        0.0734
     84 H          14.6826    0.7811    0.0000 H       1  UNL1        0.0274
     85 H          15.4808    0.7934    0.0000 H       1  UNL1        0.0274
     86 H          16.9082    4.0010    0.0000 H       1  UNL1        0.0572
     87 H          19.1854    2.6130    0.0000 H       1  UNL1        0.2102
     88 H          15.3872    0.8197    0.0000 H       1  UNL1        0.0238
     89 H          16.0096    0.2021    0.0000 H       1  UNL1        0.0238
     90 H          16.6272    0.8245    0.0000 H       1  UNL1        0.0238
     91 H          15.4689    3.8884    0.0000 H       1  UNL1        0.0335
     92 H          14.6706    3.8946    0.0000 H       1  UNL1        0.0335
     93 H          13.5173    1.8969    0.0000 H       1  UNL1        0.0290
     94 H          13.9217    1.2087    0.0000 H       1  UNL1        0.0290
     95 H          13.5880    2.5672    0.0000 H       1  UNL1        0.0600
     96 H          18.7611   -1.2809    0.0000 H       1  UNL1        0.0265
     97 H          18.8051   -2.1566    0.0000 H       1  UNL1        0.0265
     98 H          19.6808   -2.1126    0.0000 H       1  UNL1        0.0265
     99 H          12.9292    2.5682    0.0000 H       1  UNL1        0.0910
    100 H          12.6044    1.2956    0.0000 H       1  UNL1        0.0340
    101 H          13.0029    1.9858    0.0000 H       1  UNL1        0.0340
    102 H          22.0239   -2.9329    0.0000 H       1  UNL1        0.0342
    103 H          22.7602   -2.4569    0.0000 H       1  UNL1        0.0342
    104 H          22.2842   -1.7205    0.0000 H       1  UNL1        0.0342
    105 H          10.9893    1.0682    0.0000 H       1  UNL1        0.0624
    106 H          15.4923   -2.8728    0.0000 H       1  UNL1        0.0626
    107 H          18.2982   -2.8836    0.0000 H       1  UNL1        0.0626
    108 H          10.6603    3.4982    0.0000 H       1  UNL1        0.0621
    109 H          10.1233    2.1882    0.0000 H       1  UNL1        0.0649
    110 H          15.4861   -4.4928    0.0000 H       1  UNL1        0.0618
    111 H          18.2920   -4.5036    0.0000 H       1  UNL1        0.0618
    112 H          10.1042    3.9151    0.0000 H       1  UNL1        0.0255
    113 H           9.2573    3.6882    0.0000 H       1  UNL1        0.0255
    114 H           9.4842    2.8413    0.0000 H       1  UNL1        0.0255
    115 H          16.8859   -5.3082    0.0000 H       1  UNL1        0.0618
    116 H           8.9282    1.2582    0.0000 H       1  UNL1        0.0910
    117 H          12.0823   -0.6587    0.0000 H       1  UNL1        0.0524
    118 H          12.9292   -0.4318    0.0000 H       1  UNL1        0.0524
    119 H          12.7023    0.4151    0.0000 H       1  UNL1        0.0524
    120 H           7.6636    0.9032    0.0000 H       1  UNL1        0.0340
    121 H           8.4607    0.9032    0.0000 H       1  UNL1        0.0340
    122 H           6.6592    2.1882    0.0000 H       1  UNL1        0.0624
    123 H           8.5991    3.6882    0.0000 H       1  UNL1        0.0621
    124 H           7.1962    3.4982    0.0000 H       1  UNL1        0.0649
    125 H           8.6822    4.3782    0.0000 H       1  UNL1        0.0255
    126 H           8.0622    4.9982    0.0000 H       1  UNL1        0.0255
    127 H           7.4422    4.3782    0.0000 H       1  UNL1        0.0255
    128 H           5.4641    3.4982    0.0000 H       1  UNL1        0.0938
    129 H           4.0611    3.6882    0.0000 H       1  UNL1        0.0671
    130 H           5.7101    0.3782    0.0000 H       1  UNL1        0.0524
    131 H           6.3301   -0.2418    0.0000 H       1  UNL1        0.0524
    132 H           6.9501    0.3782    0.0000 H       1  UNL1        0.0524
    133 H           4.2941    3.4982    0.0000 H       1  UNL1        0.0650
    134 H           3.7320    1.2582    0.0000 H       1  UNL1        0.0646
    135 H           5.1350    1.0682    0.0000 H       1  UNL1        0.0621
    136 H           3.9781    0.3782    0.0000 H       1  UNL1        0.0255
    137 H           4.5981   -0.2418    0.0000 H       1  UNL1        0.0255
    138 H           5.2181    0.3782    0.0000 H       1  UNL1        0.0255
    139 H           4.0611    4.6882    0.0000 H       1  UNL1        0.2101
    140 H           2.8660    0.7582    0.0000 H       1  UNL1        0.2100
    141 H           1.6900    3.4151    0.0000 H       1  UNL1        0.0524
    142 H           1.4631    2.5682    0.0000 H       1  UNL1        0.0524
    143 H           2.3100    2.3413    0.0000 H       1  UNL1        0.0524
@<TRIPOS>BOND
     1    18     1    1
     2     1    87    1
     3    22     2    1
     4     2    38    1
     5     3    30    1
     6     3    39    1
     7    36     4    1
     8    40     4    1
     9     5    38    2
    10     6    40    1
    11     6    47    1
    12     7    39    2
    13    44     8    1
    14     8    54    1
    15    48     9    1
    16    53     9    1
    17    10    53    1
    18    10    57    1
    19    56    11    1
    20    11    62    1
    21    58    12    1
    22    60    12    1
    23    13    60    1
    24    13    64    1
    25    61    14    1
    26    14   139    1
    27    63    15    1
    28    15    67    1
    29    65    16    1
    30    16   140    1
    31    17    18    1
    32    17    21    1
    33    17    22    1
    34    17    28    1
    35    18    19    1
    36    18    24    1
    37    19    20    1
    38    19    27    1
    39    19    68    1
    40    20    23    1
    41    20    25    1
    42    20    69    1
    43    21    26    1
    44    21    30    1
    45    21    70    1
    46    22    25    1
    47    22    71    1
    48    23    29    1
    49    23    31    1
    50    23    33    1
    51    24    26    1
    52    24    72    1
    53    24    73    1
    54    25    74    1
    55    25    75    1
    56    26    76    1
    57    26    77    1
    58    27    32    1
    59    27    78    1
    60    27    79    1
    61    28    80    1
    62    28    81    1
    63    28    82    1
    64    29    32    2
    65    29    34    1
    66    30    37    1
    67    30    83    1
    68    31    35    1
    69    31    84    1
    70    31    85    1
    71    32    86    1
    72    33    88    1
    73    33    89    1
    74    33    90    1
    75    34    36    1
    76    34    91    1
    77    34    92    1
    78    35    36    1
    79    35    93    1
    80    35    94    1
    81    36    95    1
    82    37    96    1
    83    37    97    1
    84    37    98    1
    85    38    41    1
    86    39    43    1
    87    40    42    1
    88    40    99    1
    89    41    45   ar
    90    41    46   ar
    91    42    44    1
    92    42   100    1
    93    42   101    1
    94    43   102    1
    95    43   103    1
    96    43   104    1
    97    44    48    1
    98    44   105    1
    99    45    49   ar
   100    45   106    1
   101    46    50   ar
   102    46   107    1
   103    47    48    1
   104    47    51    1
   105    47   108    1
   106    48   109    1
   107    49    52   ar
   108    49   110    1
   109    50    52   ar
   110    50   111    1
   111    51   112    1
   112    51   113    1
   113    51   114    1
   114    52   115    1
   115    53    55    1
   116    53   116    1
   117    54   117    1
   118    54   118    1
   119    54   119    1
   120    55    56    1
   121    55   120    1
   122    55   121    1
   123    56    58    1
   124    56   122    1
   125    57    58    1
   126    57    59    1
   127    57   123    1
   128    58   124    1
   129    59   125    1
   130    59   126    1
   131    59   127    1
   132    60    61    1
   133    60   128    1
   134    61    63    1
   135    61   129    1
   136    62   130    1
   137    62   131    1
   138    62   132    1
   139    63    65    1
   140    63   133    1
   141    64    65    1
   142    64    66    1
   143    64   135    1
   144    65   134    1
   145    66   136    1
   146    66   137    1
   147    66   138    1
   148    67   141    1
   149    67   142    1
   150    67   143    1
