@<TRIPOS>MOLECULE
IMPHY013931
 59 62 0 0 0
SMALL
GASTEIGER

@<TRIPOS>ATOM
      1 O          10.1642    1.9852    0.0000 O.3     1  UNL1       -0.3918
      2 O           2.5357   -2.5286    0.0000 O.3     1  UNL1       -0.3918
      3 C           7.0628   -0.9763    0.0000 C.3     1  UNL1       -0.0344
      4 C           7.9288   -0.4763    0.0000 C.3     1  UNL1       -0.0322
      5 C           6.1968   -0.4763    0.0000 C.3     1  UNL1       -0.0323
      6 C           7.9288    0.5237    0.0000 C.3     1  UNL1       -0.0238
      7 C           5.2868   -0.9832    0.0000 C.3     1  UNL1       -0.0260
      8 C           5.2787   -2.0248    0.0000 C.3     1  UNL1       -0.0330
      9 C           8.8750    0.8284    0.0000 C.3     1  UNL1       -0.0096
     10 C           6.1968    0.5237    0.0000 C.3     1  UNL1       -0.0489
     11 C           7.0628    1.0237    0.0000 C.3     1  UNL1       -0.0467
     12 C           7.0789   -2.0178    0.0000 C.3     1  UNL1       -0.0494
     13 C           8.8750   -0.7810    0.0000 C.3     1  UNL1       -0.0491
     14 C           6.1808   -2.5456    0.0000 C.3     1  UNL1       -0.0494
     15 C           9.4586    0.0237    0.0000 C.3     1  UNL1       -0.0471
     16 C           4.3599   -0.4191    0.0000 C.3     1  UNL1       -0.0448
     17 C           7.9288    1.5237    0.0000 C.3     1  UNL1       -0.0590
     18 C           4.3433   -2.5745    0.0000 C.3     1  UNL1       -0.0235
     19 C           5.2945    0.0168    0.0000 C.3     1  UNL1       -0.0590
     20 C           9.1857    1.7789    0.0000 C.3     1  UNL1        0.0558
     21 C           3.4120   -0.9470    0.0000 C.3     1  UNL1       -0.0263
     22 C           3.4037   -2.0320    0.0000 C.3     1  UNL1        0.0555
     23 C           8.5179    2.5232    0.0000 C.3     1  UNL1       -0.0387
     24 H           7.8022   -1.3956    0.0000 H       1  UNL1        0.0306
     25 H           8.0188   -1.3215    0.0000 H       1  UNL1        0.0309
     26 H           6.9329   -0.0513    0.0000 H       1  UNL1        0.0309
     27 H           5.2820   -2.8748    0.0000 H       1  UNL1        0.0307
     28 H           9.7148    0.9603    0.0000 H       1  UNL1        0.0331
     29 H           5.9847    1.1063    0.0000 H       1  UNL1        0.0268
     30 H           5.5862    0.4160    0.0000 H       1  UNL1        0.0268
     31 H           7.4613    1.4986    0.0000 H       1  UNL1        0.0271
     32 H           6.6643    1.4986    0.0000 H       1  UNL1        0.0271
     33 H           7.2969   -2.5982    0.0000 H       1  UNL1        0.0268
     34 H           7.6880   -1.9023    0.0000 H       1  UNL1        0.0268
     35 H           8.6240   -1.3480    0.0000 H       1  UNL1        0.0268
     36 H           9.4124   -1.0903    0.0000 H       1  UNL1        0.0268
     37 H           5.7835   -3.0215    0.0000 H       1  UNL1        0.0268
     38 H           6.5818   -3.0185    0.0000 H       1  UNL1        0.0268
     39 H           9.9195   -0.3910    0.0000 H       1  UNL1        0.0269
     40 H           9.9195    0.4384    0.0000 H       1  UNL1        0.0269
     41 H           4.7681    0.0476    0.0000 H       1  UNL1        0.0271
     42 H           3.9700    0.0630    0.0000 H       1  UNL1        0.0271
     43 H           8.5488    1.5237    0.0000 H       1  UNL1        0.0235
     44 H           7.9288    2.1437    0.0000 H       1  UNL1        0.0235
     45 H           7.3088    1.5237    0.0000 H       1  UNL1        0.0235
     46 H           3.9460   -3.0504    0.0000 H       1  UNL1        0.0293
     47 H           4.7443   -3.0474    0.0000 H       1  UNL1        0.0293
     48 H           5.9145    0.0120    0.0000 H       1  UNL1        0.0235
     49 H           5.2993    0.6368    0.0000 H       1  UNL1        0.0235
     50 H           4.6745    0.0216    0.0000 H       1  UNL1        0.0235
     51 H           9.3783    2.3683    0.0000 H       1  UNL1        0.0593
     52 H           3.2075   -0.3617    0.0000 H       1  UNL1        0.0290
     53 H           2.8004   -1.0484    0.0000 H       1  UNL1        0.0290
     54 H           2.8686   -1.7189    0.0000 H       1  UNL1        0.0593
     55 H           8.9793    2.9373    0.0000 H       1  UNL1        0.0255
     56 H           8.1038    2.9847    0.0000 H       1  UNL1        0.0255
     57 H           8.0564    2.1092    0.0000 H       1  UNL1        0.0255
     58 H          10.3568    2.5745    0.0000 H       1  UNL1        0.2098
     59 H           2.0000   -2.2166    0.0000 H       1  UNL1        0.2098
@<TRIPOS>BOND
     1    20     1    1
     2     1    58    1
     3    22     2    1
     4     2    59    1
     5     3     4    1
     6     3     5    1
     7     3    12    1
     8     3    24    1
     9     4     6    1
    10     4    13    1
    11     4    25    1
    12     5     7    1
    13     5    10    1
    14     5    26    1
    15     6     9    1
    16     6    11    1
    17     6    17    1
    18     7     8    1
    19     7    16    1
    20     7    19    1
    21     8    14    1
    22     8    18    1
    23     8    27    1
    24     9    15    1
    25     9    20    1
    26     9    28    1
    27    10    11    1
    28    10    29    1
    29    10    30    1
    30    11    31    1
    31    11    32    1
    32    12    14    1
    33    12    33    1
    34    12    34    1
    35    13    15    1
    36    13    35    1
    37    13    36    1
    38    14    37    1
    39    14    38    1
    40    15    39    1
    41    15    40    1
    42    16    21    1
    43    16    41    1
    44    16    42    1
    45    17    43    1
    46    17    44    1
    47    17    45    1
    48    18    22    1
    49    18    46    1
    50    18    47    1
    51    19    48    1
    52    19    49    1
    53    19    50    1
    54    20    23    1
    55    20    51    1
    56    21    22    1
    57    21    52    1
    58    21    53    1
    59    22    54    1
    60    23    55    1
    61    23    56    1
    62    23    57    1
