@<TRIPOS>MOLECULE
IMPHY000030
 129 135 0 0 0
SMALL
GASTEIGER

@<TRIPOS>ATOM
      1 O          15.1835    2.0122    0.0000 O.3     1  UNL1       -0.3601
      2 O          14.3037   -1.4849    0.0000 O.3     1  UNL1       -0.4537
      3 O          12.5755   -0.4782    0.0000 O.3     1  UNL1       -0.4570
      4 O           9.7942    3.0849    0.0000 O.3     1  UNL1       -0.3480
      5 O          16.6524   -1.9450    0.0000 O.2     1  UNL1       -0.2974
      6 O          13.4358   -1.9815    0.0000 O.2     1  UNL1       -0.2505
      7 O          15.8004   -2.3567    0.0000 O.2     1  UNL1       -0.2453
      8 O           8.0622    3.0849    0.0000 O.3     1  UNL1       -0.3456
      9 O           8.0622    0.0849    0.0000 O.3     1  UNL1       -0.3770
     10 O           6.3301    1.0849    0.0000 O.3     1  UNL1       -0.3403
     11 O           5.4641    2.5849    0.0000 O.3     1  UNL1       -0.3431
     12 O           4.5981    0.0849    0.0000 O.3     1  UNL1       -0.3841
     13 O           2.8660    1.0849    0.0000 O.3     1  UNL1       -0.3744
     14 O           2.8660    3.0849    0.0000 O.3     1  UNL1       -0.3866
     15 C          15.1794    1.0118    0.0000 C.3     1  UNL1        0.1090
     16 C          14.3153    1.5151    0.0000 C.3     1  UNL1        0.1066
     17 C          15.1755    0.0118    0.0000 C.3     1  UNL1        0.0496
     18 C          13.4473    1.0184    0.0000 C.3     1  UNL1        0.0371
     19 C          12.5393    1.5288    0.0000 C.3     1  UNL1       -0.0200
     20 C          16.1267    1.3128    0.0000 C.3     1  UNL1       -0.0197
     21 C          14.3076   -0.4849    0.0000 C.3     1  UNL1        0.1491
     22 C          14.3353    2.5565    0.0000 C.3     1  UNL1       -0.0203
     23 C          13.4435    0.0184    0.0000 C.3     1  UNL1        0.1464
     24 C          16.1205   -0.2966    0.0000 C.3     1  UNL1        0.0289
     25 C          12.5353    2.5704    0.0000 C.3     1  UNL1       -0.0327
     26 C          16.7073    0.5059    0.0000 C.3     1  UNL1       -0.0401
     27 C          13.4393    3.0878    0.0000 C.3     1  UNL1       -0.0469
     28 C          15.1717   -0.9882    0.0000 C.3     1  UNL1       -0.0527
     29 C          11.6103    0.9683    0.0000 C.3     1  UNL1       -0.0446
     30 C          12.5431    0.5288    0.0000 C.3     1  UNL1       -0.0588
     31 C          11.6020    3.1237    0.0000 C.3     1  UNL1       -0.0232
     32 C          10.6644    1.4999    0.0000 C.3     1  UNL1       -0.0260
     33 C          16.8623   -0.9673    0.0000 C.2     1  UNL1        0.1341
     34 C          10.6603    2.5849    0.0000 C.3     1  UNL1        0.0620
     35 C          17.8140   -0.6603    0.0000 C.3     1  UNL1       -0.0058
     36 C          12.5717   -1.4782    0.0000 C.2     1  UNL1        0.3103
     37 C          14.8004   -2.3528    0.0000 C.2     1  UNL1        0.3350
     38 C          11.7037   -1.9749    0.0000 C.3     1  UNL1        0.0534
     39 C           8.9282    2.5849    0.0000 C.3     1  UNL1        0.1624
     40 C          14.2970   -3.2169    0.0000 C.2     1  UNL1        0.0293
     41 C          10.8396   -1.4715    0.0000 C.3     1  UNL1       -0.0432
     42 C           8.9282    1.5849    0.0000 C.3     1  UNL1        0.0272
     43 C          11.6999   -2.9749    0.0000 C.3     1  UNL1       -0.0523
     44 C          14.7937   -4.0849    0.0000 C.3     1  UNL1       -0.0333
     45 C          13.2971   -3.2131    0.0000 C.2     1  UNL1       -0.0774
     46 C           8.0622    1.0849    0.0000 C.3     1  UNL1        0.0915
     47 C           7.1962    2.5849    0.0000 C.3     1  UNL1        0.0875
     48 C           7.1962    1.5849    0.0000 C.3     1  UNL1        0.1138
     49 C           9.9717   -1.9682    0.0000 C.3     1  UNL1       -0.0645
     50 C          12.7938   -4.0772    0.0000 C.3     1  UNL1       -0.0461
     51 C           6.3301    3.0849    0.0000 C.3     1  UNL1       -0.0361
     52 C           8.9282   -0.4151    0.0000 C.3     1  UNL1        0.0369
     53 C           5.4641    1.5849    0.0000 C.3     1  UNL1        0.1883
     54 C           4.5981    1.0849    0.0000 C.3     1  UNL1        0.1344
     55 C           3.7320    1.5849    0.0000 C.3     1  UNL1        0.1170
     56 C           4.5981    3.0849    0.0000 C.3     1  UNL1        0.0873
     57 C           3.7320    2.5849    0.0000 C.3     1  UNL1        0.1097
     58 C           4.5981    4.0849    0.0000 C.3     1  UNL1       -0.0361
     59 C           2.0000    1.5849    0.0000 C.3     1  UNL1        0.0370
     60 H          14.1818    0.5906    0.0000 H       1  UNL1        0.0372
     61 H          16.6653    1.6200    0.0000 H       1  UNL1        0.0294
     62 H          15.8779    1.8807    0.0000 H       1  UNL1        0.0294
     63 H          13.7694   -0.7928    0.0000 H       1  UNL1        0.0778
     64 H          14.9440    2.4387    0.0000 H       1  UNL1        0.0294
     65 H          14.5556    3.1361    0.0000 H       1  UNL1        0.0294
     66 H          12.9077    0.3305    0.0000 H       1  UNL1        0.0775
     67 H          15.8096   -0.8330    0.0000 H       1  UNL1        0.0385
     68 H          12.5418    3.4204    0.0000 H       1  UNL1        0.0307
     69 H          17.1665    0.0894    0.0000 H       1  UNL1        0.0273
     70 H          17.1697    0.9188    0.0000 H       1  UNL1        0.0273
     71 H          13.8421    3.5591    0.0000 H       1  UNL1        0.0269
     72 H          13.0439    3.5652    0.0000 H       1  UNL1        0.0269
     73 H          14.5517   -0.9858    0.0000 H       1  UNL1        0.0237
     74 H          15.1693   -1.6082    0.0000 H       1  UNL1        0.0237
     75 H          15.7916   -0.9906    0.0000 H       1  UNL1        0.0237
     76 H          11.2185    0.4878    0.0000 H       1  UNL1        0.0272
     77 H          12.0167    0.5001    0.0000 H       1  UNL1        0.0272
     78 H          11.9231    0.5264    0.0000 H       1  UNL1        0.0235
     79 H          12.5455   -0.0912    0.0000 H       1  UNL1        0.0235
     80 H          13.1631    0.5312    0.0000 H       1  UNL1        0.0235
     81 H          12.0048    3.5951    0.0000 H       1  UNL1        0.0293
     82 H          11.2065    3.6012    0.0000 H       1  UNL1        0.0293
     83 H          10.0532    1.6036    0.0000 H       1  UNL1        0.0290
     84 H          10.4576    0.9154    0.0000 H       1  UNL1        0.0290
     85 H          10.6614    3.2049    0.0000 H       1  UNL1        0.0597
     86 H          18.0043   -1.2504    0.0000 H       1  UNL1        0.0306
     87 H          18.4040   -0.4700    0.0000 H       1  UNL1        0.0306
     88 H          17.6236   -0.0703    0.0000 H       1  UNL1        0.0306
     89 H          12.4382   -2.4027    0.0000 H       1  UNL1        0.0410
     90 H           9.4651    2.2749    0.0000 H       1  UNL1        0.0910
     91 H          11.2400   -0.9981    0.0000 H       1  UNL1        0.0270
     92 H          10.4429   -0.9950    0.0000 H       1  UNL1        0.0270
     93 H           9.1403    1.0023    0.0000 H       1  UNL1        0.0340
     94 H           9.5388    1.6925    0.0000 H       1  UNL1        0.0340
     95 H          11.0799   -2.9725    0.0000 H       1  UNL1        0.0238
     96 H          11.6975   -3.5948    0.0000 H       1  UNL1        0.0238
     97 H          12.3199   -2.9772    0.0000 H       1  UNL1        0.0238
     98 H          14.2556   -4.3928    0.0000 H       1  UNL1        0.0280
     99 H          15.1016   -4.6230    0.0000 H       1  UNL1        0.0280
    100 H          15.3318   -3.7769    0.0000 H       1  UNL1        0.0280
    101 H          12.9892   -2.6750    0.0000 H       1  UNL1        0.0574
    102 H           7.5252    0.7749    0.0000 H       1  UNL1        0.0624
    103 H           7.1962    3.2049    0.0000 H       1  UNL1        0.0621
    104 H           6.6592    1.8949    0.0000 H       1  UNL1        0.0649
    105 H           9.6638   -1.4301    0.0000 H       1  UNL1        0.0230
    106 H           9.4336   -2.2761    0.0000 H       1  UNL1        0.0230
    107 H          10.2796   -2.5063    0.0000 H       1  UNL1        0.0230
    108 H          12.2581   -3.7651    0.0000 H       1  UNL1        0.0272
    109 H          12.4817   -4.6129    0.0000 H       1  UNL1        0.0272
    110 H          13.3295   -4.3893    0.0000 H       1  UNL1        0.0272
    111 H           6.6401    3.6218    0.0000 H       1  UNL1        0.0255
    112 H           5.7932    3.3949    0.0000 H       1  UNL1        0.0255
    113 H           6.0201    2.5479    0.0000 H       1  UNL1        0.0255
    114 H           8.6182   -0.9521    0.0000 H       1  UNL1        0.0524
    115 H           9.4651   -0.7251    0.0000 H       1  UNL1        0.0524
    116 H           9.2382    0.1218    0.0000 H       1  UNL1        0.0524
    117 H           5.4641    0.9649    0.0000 H       1  UNL1        0.0938
    118 H           4.0611    0.7749    0.0000 H       1  UNL1        0.0671
    119 H           3.1951    1.8949    0.0000 H       1  UNL1        0.0650
    120 H           5.1350    3.3949    0.0000 H       1  UNL1        0.0621
    121 H           3.7320    3.2049    0.0000 H       1  UNL1        0.0646
    122 H           4.0611   -0.2251    0.0000 H       1  UNL1        0.2101
    123 H           5.2181    4.0849    0.0000 H       1  UNL1        0.0255
    124 H           4.5981    4.7049    0.0000 H       1  UNL1        0.0255
    125 H           3.9781    4.0849    0.0000 H       1  UNL1        0.0255
    126 H           2.8660    3.7049    0.0000 H       1  UNL1        0.2100
    127 H           2.3100    2.1218    0.0000 H       1  UNL1        0.0524
    128 H           1.4631    1.8949    0.0000 H       1  UNL1        0.0524
    129 H           1.6900    1.0479    0.0000 H       1  UNL1        0.0524
@<TRIPOS>BOND
     1    15     1    1
     2    16     1    1
     3    21     2    1
     4     2    37    1
     5    23     3    1
     6     3    36    1
     7    34     4    1
     8    39     4    1
     9     5    33    2
    10     6    36    2
    11     7    37    2
    12     8    39    1
    13     8    47    1
    14    46     9    1
    15     9    52    1
    16    48    10    1
    17    53    10    1
    18    11    53    1
    19    11    56    1
    20    54    12    1
    21    12   122    1
    22    55    13    1
    23    13    59    1
    24    57    14    1
    25    14   126    1
    26    15    16    1
    27    15    17    1
    28    15    20    1
    29    16    18    1
    30    16    22    1
    31    17    21    1
    32    17    24    1
    33    17    28    1
    34    18    19    1
    35    18    23    1
    36    18    60    1
    37    19    25    1
    38    19    29    1
    39    19    30    1
    40    20    26    1
    41    20    61    1
    42    20    62    1
    43    21    23    1
    44    21    63    1
    45    22    27    1
    46    22    64    1
    47    22    65    1
    48    23    66    1
    49    24    26    1
    50    24    33    1
    51    24    67    1
    52    25    27    1
    53    25    31    1
    54    25    68    1
    55    26    69    1
    56    26    70    1
    57    27    71    1
    58    27    72    1
    59    28    73    1
    60    28    74    1
    61    28    75    1
    62    29    32    1
    63    29    76    1
    64    29    77    1
    65    30    78    1
    66    30    79    1
    67    30    80    1
    68    31    34    1
    69    31    81    1
    70    31    82    1
    71    32    34    1
    72    32    83    1
    73    32    84    1
    74    33    35    1
    75    34    85    1
    76    35    86    1
    77    35    87    1
    78    35    88    1
    79    36    38    1
    80    37    40    1
    81    38    41    1
    82    38    43    1
    83    38    89    1
    84    39    42    1
    85    39    90    1
    86    40    44    1
    87    40    45    2
    88    41    49    1
    89    41    91    1
    90    41    92    1
    91    42    46    1
    92    42    93    1
    93    42    94    1
    94    43    95    1
    95    43    96    1
    96    43    97    1
    97    44    98    1
    98    44    99    1
    99    44   100    1
   100    45    50    1
   101    45   101    1
   102    46    48    1
   103    46   102    1
   104    47    48    1
   105    47    51    1
   106    47   103    1
   107    48   104    1
   108    49   105    1
   109    49   106    1
   110    49   107    1
   111    50   108    1
   112    50   109    1
   113    50   110    1
   114    51   111    1
   115    51   112    1
   116    51   113    1
   117    52   114    1
   118    52   115    1
   119    52   116    1
   120    53    54    1
   121    53   117    1
   122    54    55    1
   123    54   118    1
   124    55    57    1
   125    55   119    1
   126    56    57    1
   127    56    58    1
   128    56   120    1
   129    57   121    1
   130    58   123    1
   131    58   124    1
   132    58   125    1
   133    59   127    1
   134    59   128    1
   135    59   129    1
