@<TRIPOS>MOLECULE
IMPHY002755
 63 68 0 0 0
SMALL
GASTEIGER

@<TRIPOS>ATOM
      1 O           3.6948   -0.8926    0.0000 O.3     1  UNL1       -0.3878
      2 O           7.0351    1.7004    0.0000 O.3     1  UNL1       -0.3912
      3 O           3.3182    1.2745    0.0000 O.3     1  UNL1       -0.3910
      4 O           2.9174    2.1583    0.0000 O.3     1  UNL1       -0.3793
      5 O           7.9011   -2.5348    0.0000 O.3     1  UNL1       -0.3944
      6 N           8.2304   -0.1287    0.0000 N.3     1  UNL1       -0.2981
      7 C           6.2837    0.2666    0.0000 C.3     1  UNL1        0.0193
      8 C           6.2837   -0.6010    0.0000 C.3     1  UNL1       -0.0220
      9 C           5.6054    0.8075    0.0000 C.3     1  UNL1       -0.0231
     10 C           7.2857    0.1605    0.0000 C.3     1  UNL1        0.0244
     11 C           4.7596   -0.9489    0.0000 C.3     1  UNL1        0.0048
     12 C           4.7596    0.6144    0.0000 C.3     1  UNL1        0.0181
     13 C           4.3832   -0.1672    0.0000 C.3     1  UNL1        0.0781
     14 C           5.6054   -1.1419    0.0000 C.3     1  UNL1       -0.0420
     15 C           7.0351   -1.0348    0.0000 C.3     1  UNL1        0.0101
     16 C           7.0351    0.7004    0.0000 C.3     1  UNL1        0.0628
     17 C           5.6832    1.6716    0.0000 C.3     1  UNL1       -0.0416
     18 C           4.8854    2.0126    0.0000 C.3     1  UNL1        0.0120
     19 C           4.3146    1.3592    0.0000 C.3     1  UNL1        0.0661
     20 C           3.7383    0.1027    0.0000 C.3     1  UNL1        0.0034
     21 C           8.2304   -0.8806    0.0000 C.3     1  UNL1        0.0072
     22 C           7.7864   -0.6010    0.0000 C.3     1  UNL1       -0.0415
     23 C           3.7383    1.5872    0.0000 C.3     1  UNL1        0.0661
     24 C           7.7864    0.2666    0.0000 C.3     1  UNL1       -0.0256
     25 C           7.0351   -2.0348    0.0000 C.3     1  UNL1        0.0513
     26 C           9.0344    0.4660    0.0000 C.3     1  UNL1       -0.0036
     27 C           9.9514    0.0671    0.0000 C.3     1  UNL1       -0.0523
     28 C           3.0016    3.1548    0.0000 C.3     1  UNL1        0.0368
     29 H           6.3472   -1.4486    0.0000 H       1  UNL1        0.0314
     30 H           6.3870    1.1416    0.0000 H       1  UNL1        0.0312
     31 H           7.7302    0.8850    0.0000 H       1  UNL1        0.0473
     32 H           4.2296   -1.6134    0.0000 H       1  UNL1        0.0344
     33 H           3.9104    0.5763    0.0000 H       1  UNL1        0.0357
     34 H           6.0902   -1.5285    0.0000 H       1  UNL1        0.0272
     35 H           5.3364   -1.7005    0.0000 H       1  UNL1        0.0272
     36 H           6.4981    1.0104    0.0000 H       1  UNL1        0.0599
     37 H           5.8660    2.2640    0.0000 H       1  UNL1        0.0272
     38 H           6.2915    1.5518    0.0000 H       1  UNL1        0.0272
     39 H           4.9062    2.8623    0.0000 H       1  UNL1        0.0351
     40 H           4.0345    1.9123    0.0000 H       1  UNL1        0.0600
     41 H           3.5763   -0.4958    0.0000 H       1  UNL1        0.0318
     42 H           3.1237    0.1844    0.0000 H       1  UNL1        0.0318
     43 H           8.8498   -0.8540    0.0000 H       1  UNL1        0.0433
     44 H           8.2834   -1.4983    0.0000 H       1  UNL1        0.0433
     45 H           8.3970   -0.4933    0.0000 H       1  UNL1        0.0273
     46 H           7.9985   -1.1836    0.0000 H       1  UNL1        0.0273
     47 H           3.8164    2.2023    0.0000 H       1  UNL1        0.0600
     48 H           7.9985    0.8492    0.0000 H       1  UNL1        0.0290
     49 H           8.3970    0.1589    0.0000 H       1  UNL1        0.0290
     50 H           6.8230   -2.6174    0.0000 H       1  UNL1        0.0563
     51 H           6.4245   -1.9271    0.0000 H       1  UNL1        0.0563
     52 H           3.0920   -0.7479    0.0000 H       1  UNL1        0.2102
     53 H           8.5847    0.8929    0.0000 H       1  UNL1        0.0424
     54 H           9.3767    0.9830    0.0000 H       1  UNL1        0.0424
     55 H           7.5720    2.0104    0.0000 H       1  UNL1        0.2098
     56 H           3.0548    0.7133    0.0000 H       1  UNL1        0.2098
     57 H          10.1987    0.6356    0.0000 H       1  UNL1        0.0242
     58 H          10.5199   -0.1802    0.0000 H       1  UNL1        0.0242
     59 H           9.7040   -0.5014    0.0000 H       1  UNL1        0.0242
     60 H           7.9011   -3.1548    0.0000 H       1  UNL1        0.2094
     61 H           2.3838    3.2070    0.0000 H       1  UNL1        0.0524
     62 H           3.0538    3.7726    0.0000 H       1  UNL1        0.0524
     63 H           3.6194    3.1026    0.0000 H       1  UNL1        0.0524
@<TRIPOS>BOND
     1    13     1    1
     2     1    52    1
     3    16     2    1
     4     2    55    1
     5    19     3    1
     6     3    56    1
     7    23     4    1
     8     4    28    1
     9     5    25    1
    10     5    60    1
    11     6    10    1
    12     6    21    1
    13     6    26    1
    14     7     8    1
    15     7     9    1
    16     7    10    1
    17     7    16    1
    18     8    14    1
    19     8    15    1
    20     8    29    1
    21     9    12    1
    22     9    17    1
    23     9    30    1
    24    10    11    1
    25    10    31    1
    26    11    13    1
    27    11    14    1
    28    11    32    1
    29    12    13    1
    30    12    19    1
    31    12    33    1
    32    13    20    1
    33    14    34    1
    34    14    35    1
    35    15    21    1
    36    15    22    1
    37    15    25    1
    38    16    24    1
    39    16    36    1
    40    17    18    1
    41    17    37    1
    42    17    38    1
    43    18    19    1
    44    18    23    1
    45    18    39    1
    46    19    40    1
    47    20    23    1
    48    20    41    1
    49    20    42    1
    50    21    43    1
    51    21    44    1
    52    22    24    1
    53    22    45    1
    54    22    46    1
    55    23    47    1
    56    24    48    1
    57    24    49    1
    58    25    50    1
    59    25    51    1
    60    26    27    1
    61    26    53    1
    62    26    54    1
    63    27    57    1
    64    27    58    1
    65    27    59    1
    66    28    61    1
    67    28    62    1
    68    28    63    1
