@<TRIPOS>MOLECULE
IMPHY000176
 63 65 0 0 0
SMALL
GASTEIGER

@<TRIPOS>ATOM
      1 O           8.4497   -0.5950    0.0000 O.3     1  UNL1       -0.3313
      2 O           4.8811    0.3995    0.0000 O.3     1  UNL1       -0.3457
      3 O           5.8517   -1.0950    0.0000 O.3     1  UNL1       -0.3460
      4 O           2.6598   -0.9277    0.0000 O.3     1  UNL1       -0.3812
      5 O           3.8642   -1.9799    0.0000 O.3     1  UNL1       -0.3837
      6 O           6.7177   -2.5950    0.0000 O.3     1  UNL1       -0.3865
      7 O           8.4497   -3.5950    0.0000 O.3     1  UNL1       -0.3864
      8 O          10.1818   -0.5950    0.0000 O.3     1  UNL1       -0.4606
      9 O          10.1818   -2.5950    0.0000 O.3     1  UNL1       -0.3829
     10 O           2.5369    1.2414    0.0000 O.3     1  UNL1       -0.3920
     11 O           8.4497    2.4050    0.0000 O.3     1  UNL1       -0.4912
     12 O          11.9138    2.4050    0.0000 O.3     1  UNL1       -0.4912
     13 O          10.1818    3.4050    0.0000 O.3     1  UNL1       -0.4885
     14 C           3.4030   -0.2586    0.0000 C.3     1  UNL1        0.1425
     15 C           7.5837   -1.0950    0.0000 C.3     1  UNL1        0.1144
     16 C           4.0721   -1.0017    0.0000 C.3     1  UNL1        0.1387
     17 C           7.5837   -2.0950    0.0000 C.3     1  UNL1        0.1120
     18 C           4.9856   -0.5950    0.0000 C.3     1  UNL1        0.1880
     19 C           8.4497   -2.5950    0.0000 C.3     1  UNL1        0.1152
     20 C           9.3158   -2.0950    0.0000 C.3     1  UNL1        0.1454
     21 C           3.9030    0.6074    0.0000 C.3     1  UNL1        0.0843
     22 C           6.7177   -0.5950    0.0000 C.3     1  UNL1        0.0796
     23 C           9.3158   -1.0950    0.0000 C.3     1  UNL1        0.2308
     24 C           2.5369    0.2414    0.0000 C.3     1  UNL1        0.0778
     25 C          10.1818    0.4050    0.0000 C.ar    1  UNL1        0.1312
     26 C          11.0478    0.9050    0.0000 C.ar    1  UNL1        0.0258
     27 C           9.3158    0.9050    0.0000 C.ar    1  UNL1        0.0258
     28 C           9.3158    1.9050    0.0000 C.ar    1  UNL1        0.1686
     29 C          11.0478    1.9050    0.0000 C.ar    1  UNL1        0.1686
     30 C          10.1818    2.4050    0.0000 C.ar    1  UNL1        0.2037
     31 C           8.4497    3.4050    0.0000 C.3     1  UNL1        0.0790
     32 C          12.7799    1.9050    0.0000 C.3     1  UNL1        0.0790
     33 C          11.0478    3.9050    0.0000 C.3     1  UNL1        0.0791
     34 H           7.5837   -0.4750    0.0000 H       1  UNL1        0.0647
     35 H           3.4732   -1.1622    0.0000 H       1  UNL1        0.0675
     36 H           7.0468   -1.7850    0.0000 H       1  UNL1        0.0647
     37 H           4.9532   -1.2142    0.0000 H       1  UNL1        0.0937
     38 H           7.9128   -2.9050    0.0000 H       1  UNL1        0.0648
     39 H           9.8527   -1.7850    0.0000 H       1  UNL1        0.0683
     40 H           4.0946    1.1971    0.0000 H       1  UNL1        0.0591
     41 H           3.3366    0.8596    0.0000 H       1  UNL1        0.0591
     42 H           7.1162   -0.1201    0.0000 H       1  UNL1        0.0587
     43 H           6.3192   -0.1201    0.0000 H       1  UNL1        0.0587
     44 H           9.3158   -0.4750    0.0000 H       1  UNL1        0.1084
     45 H           1.9264    0.3491    0.0000 H       1  UNL1        0.0587
     46 H           2.3249   -0.3412    0.0000 H       1  UNL1        0.0587
     47 H           2.0702   -0.7361    0.0000 H       1  UNL1        0.2105
     48 H           4.3249   -2.3948    0.0000 H       1  UNL1        0.2101
     49 H           6.7177   -3.2150    0.0000 H       1  UNL1        0.2100
     50 H           8.9867   -3.9050    0.0000 H       1  UNL1        0.2100
     51 H          10.7187   -2.2850    0.0000 H       1  UNL1        0.2102
     52 H           2.0000    1.5514    0.0000 H       1  UNL1        0.2095
     53 H          11.5848    0.5950    0.0000 H       1  UNL1        0.0692
     54 H           8.7788    0.5950    0.0000 H       1  UNL1        0.0692
     55 H           9.0697    3.4050    0.0000 H       1  UNL1        0.0660
     56 H           8.4497    4.0250    0.0000 H       1  UNL1        0.0660
     57 H           7.8297    3.4050    0.0000 H       1  UNL1        0.0660
     58 H          12.4699    1.3681    0.0000 H       1  UNL1        0.0660
     59 H          13.3168    1.5950    0.0000 H       1  UNL1        0.0660
     60 H          13.0899    2.4419    0.0000 H       1  UNL1        0.0660
     61 H          11.3578    3.3681    0.0000 H       1  UNL1        0.0660
     62 H          11.5848    4.2150    0.0000 H       1  UNL1        0.0660
     63 H          10.7378    4.4419    0.0000 H       1  UNL1        0.0660
@<TRIPOS>BOND
     1     1    15    1
     2     1    23    1
     3     2    18    1
     4     2    21    1
     5    18     3    1
     6     3    22    1
     7    14     4    1
     8     4    47    1
     9    16     5    1
    10     5    48    1
    11    17     6    1
    12     6    49    1
    13    19     7    1
    14     7    50    1
    15    23     8    1
    16     8    25    1
    17    20     9    1
    18     9    51    1
    19    10    24    1
    20    10    52    1
    21    11    28    1
    22    11    31    1
    23    12    29    1
    24    12    32    1
    25    13    30    1
    26    13    33    1
    27    14    16    1
    28    14    21    1
    29    14    24    1
    30    15    17    1
    31    15    22    1
    32    15    34    1
    33    16    18    1
    34    16    35    1
    35    17    19    1
    36    17    36    1
    37    18    37    1
    38    19    20    1
    39    19    38    1
    40    20    23    1
    41    20    39    1
    42    21    40    1
    43    21    41    1
    44    22    42    1
    45    22    43    1
    46    23    44    1
    47    24    45    1
    48    24    46    1
    49    25    26   ar
    50    25    27   ar
    51    26    29   ar
    52    26    53    1
    53    27    28   ar
    54    27    54    1
    55    28    30   ar
    56    29    30   ar
    57    31    55    1
    58    31    56    1
    59    31    57    1
    60    32    58    1
    61    32    59    1
    62    32    60    1
    63    33    61    1
    64    33    62    1
    65    33    63    1
