@<TRIPOS>MOLECULE
IMPHY007403
 36 38 0 0 0
SMALL
GASTEIGER

@<TRIPOS>ATOM
      1 O           5.0604   -1.2465    0.0000 O.3     1  UNL1       -0.4544
      2 O           2.5878   -0.4839    0.0000 O.3     1  UNL1       -0.3685
      3 O           6.8970   -1.2520    0.0000 O.3     1  UNL1       -0.5054
      4 O           5.1650    1.7480    0.0000 O.3     1  UNL1       -0.5062
      5 O           3.6756   -2.3680    0.0000 O.2     1  UNL1       -0.2479
      6 O           9.5631    0.2272    0.0000 O.2     1  UNL1       -0.4270
      7 O           8.6454   -1.2866    0.0000 O.2     1  UNL1       -0.2444
      8 C           5.1650   -0.2520    0.0000 C.3     1  UNL1        0.1378
      9 C           4.2514    0.1547    0.0000 C.3     1  UNL1        0.0256
     10 C           3.5823   -0.5884    0.0000 C.3     1  UNL1        0.1583
     11 C           6.0310    0.2480    0.0000 C.ar    1  UNL1        0.0764
     12 C           4.0823   -1.4544    0.0000 C.2     1  UNL1        0.3370
     13 C           6.8970   -0.2520    0.0000 C.ar    1  UNL1        0.1416
     14 C           6.0310    1.2480    0.0000 C.ar    1  UNL1        0.1276
     15 C           7.7631    0.2480    0.0000 C.ar    1  UNL1        0.1085
     16 C           7.7631    1.2480    0.0000 C.ar    1  UNL1       -0.0009
     17 C           6.8970    1.7480    0.0000 C.ar    1  UNL1       -0.0115
     18 C           8.6570    1.7826    0.0000 C.ar    1  UNL1       -0.0156
     19 C           8.6570   -0.2867    0.0000 C.ar    1  UNL1        0.3483
     20 C           9.5631    1.2688    0.0000 C.ar    1  UNL1        0.1067
     21 C           2.0000   -1.2929    0.0000 C.3     1  UNL1        0.0375
     22 C          10.4272    1.7721    0.0000 C.3     1  UNL1       -0.0062
     23 H           5.1205    0.5968    0.0000 H       1  UNL1        0.0789
     24 H           4.5614    0.6917    0.0000 H       1  UNL1        0.0335
     25 H           3.7498    0.5192    0.0000 H       1  UNL1        0.0335
     26 H           3.2446   -1.1084    0.0000 H       1  UNL1        0.0714
     27 H           6.8970    2.3680    0.0000 H       1  UNL1        0.0660
     28 H           8.6498    2.4026    0.0000 H       1  UNL1        0.0657
     29 H           1.4984   -0.9285    0.0000 H       1  UNL1        0.0524
     30 H           1.6356   -1.7945    0.0000 H       1  UNL1        0.0524
     31 H           2.5016   -1.6573    0.0000 H       1  UNL1        0.0524
     32 H           7.4340   -1.5620    0.0000 H       1  UNL1        0.2922
     33 H           5.1650    2.3680    0.0000 H       1  UNL1        0.2921
     34 H          10.7392    1.2364    0.0000 H       1  UNL1        0.0308
     35 H          10.9629    2.0842    0.0000 H       1  UNL1        0.0308
     36 H          10.1151    2.3079    0.0000 H       1  UNL1        0.0308
@<TRIPOS>BOND
     1     1     8    1
     2     1    12    1
     3    10     2    1
     4     2    21    1
     5     3    13    1
     6     3    32    1
     7     4    14    1
     8     4    33    1
     9     5    12    2
    10     6    19   ar
    11     6    20   ar
    12     7    19    2
    13     8     9    1
    14     8    11    1
    15     8    23    1
    16     9    10    1
    17     9    24    1
    18     9    25    1
    19    10    12    1
    20    10    26    1
    21    11    13   ar
    22    11    14   ar
    23    13    15   ar
    24    14    17   ar
    25    15    16   ar
    26    15    19   ar
    27    16    17   ar
    28    16    18   ar
    29    17    27    1
    30    18    20   ar
    31    18    28    1
    32    20    22    1
    33    21    29    1
    34    21    30    1
    35    21    31    1
    36    22    34    1
    37    22    35    1
    38    22    36    1
