@<TRIPOS>MOLECULE
IMPHY013588
 62 68 0 0 0
SMALL
GASTEIGER

@<TRIPOS>ATOM
      1 O           4.5090    1.0517    0.0000 O.3     1  UNL1       -0.3535
      2 O           6.3790    0.5656    0.0000 O.3     1  UNL1       -0.4586
      3 O           3.3938    3.5327    0.0000 O.3     1  UNL1       -0.3597
      4 O           6.3590    2.2976    0.0000 O.2     1  UNL1       -0.2512
      5 N           2.7370    2.0609    0.0000 N.3     1  UNL1       -0.2488
      6 C           3.6030    0.5609    0.0000 C.3     1  UNL1        0.0210
      7 C           3.5870   -0.4806    0.0000 C.3     1  UNL1       -0.0224
      8 C           4.4691    1.0609    0.0000 C.3     1  UNL1        0.0172
      9 C           4.4850   -1.0083    0.0000 C.3     1  UNL1        0.0077
     10 C           5.3871   -0.4875    0.0000 C.3     1  UNL1        0.1039
     11 C           4.4691    2.0609    0.0000 C.3     1  UNL1        0.0147
     12 C           2.7370    1.0609    0.0000 C.3     1  UNL1        0.1206
     13 C           5.3791    0.5541    0.0000 C.3     1  UNL1        0.1337
     14 C           3.4000    0.9308    0.0000 C.3     1  UNL1       -0.0431
     15 C           2.6350   -1.0012    0.0000 C.3     1  UNL1       -0.0424
     16 C           3.6030    2.5609    0.0000 C.3     1  UNL1        0.1196
     17 C           4.8256    0.4769    0.0000 C.3     1  UNL1       -0.0438
     18 C           4.4934   -2.0933    0.0000 C.3     1  UNL1       -0.0233
     19 C           2.6183   -2.0861    0.0000 C.3     1  UNL1       -0.0198
     20 C           4.0472    2.0518    0.0000 C.3     1  UNL1       -0.0436
     21 C           3.3163    1.7265    0.0000 C.3     1  UNL1       -0.0518
     22 C           3.5691    1.3390    0.0000 C.3     1  UNL1       -0.0459
     23 C           3.5538   -2.6358    0.0000 C.2     1  UNL1       -0.0729
     24 C           4.9691    2.9270    0.0000 C.3     1  UNL1       -0.0555
     25 C           2.0000    2.7280    0.0000 C.3     1  UNL1        0.0271
     26 C           2.4051    3.6358    0.0000 C.3     1  UNL1        0.0626
     27 C           3.5499   -3.6358    0.0000 C.2     1  UNL1       -0.0992
     28 C           6.8690    1.4374    0.0000 C.2     1  UNL1        0.3043
     29 C           7.8689    1.4490    0.0000 C.3     1  UNL1        0.0332
     30 H           2.8542   -0.0499    0.0000 H       1  UNL1        0.0314
     31 H           5.1202    1.6073    0.0000 H       1  UNL1        0.0351
     32 H           6.1248   -0.9097    0.0000 H       1  UNL1        0.0639
     33 H           2.2001    0.7509    0.0000 H       1  UNL1        0.0775
     34 H           5.6828    1.0946    0.0000 H       1  UNL1        0.0763
     35 H           2.8052    1.1060    0.0000 H       1  UNL1        0.0272
     36 H           3.9916    1.1161    0.0000 H       1  UNL1        0.0272
     37 H           2.4350   -0.4144    0.0000 H       1  UNL1        0.0274
     38 H           2.0226   -1.0979    0.0000 H       1  UNL1        0.0274
     39 H           4.3392    2.9859    0.0000 H       1  UNL1        0.0775
     40 H           5.4079    0.2639    0.0000 H       1  UNL1        0.0272
     41 H           5.1097    1.0280    0.0000 H       1  UNL1        0.0272
     42 H           4.7069   -2.6754    0.0000 H       1  UNL1        0.0316
     43 H           5.1034   -1.9825    0.0000 H       1  UNL1        0.0316
     44 H           1.8822   -2.5111    0.0000 H       1  UNL1        0.0346
     45 H           4.2711    2.6300    0.0000 H       1  UNL1        0.0272
     46 H           4.1826    1.4468    0.0000 H       1  UNL1        0.0272
     47 H           3.1247    2.3161    0.0000 H       1  UNL1        0.0266
     48 H           2.7099    1.5976    0.0000 H       1  UNL1        0.0266
     49 H           3.8615    1.8857    0.0000 H       1  UNL1        0.0271
     50 H           2.9935    1.5695    0.0000 H       1  UNL1        0.0271
     51 H           5.5060    2.6170    0.0000 H       1  UNL1        0.0236
     52 H           5.2791    3.4639    0.0000 H       1  UNL1        0.0236
     53 H           4.4321    3.2370    0.0000 H       1  UNL1        0.0236
     54 H           1.4635    3.0388    0.0000 H       1  UNL1        0.0451
     55 H           1.6346    2.2272    0.0000 H       1  UNL1        0.0451
     56 H           2.5338    4.2423    0.0000 H       1  UNL1        0.0573
     57 H           1.8155    3.8276    0.0000 H       1  UNL1        0.0573
     58 H           3.0118   -3.9437    0.0000 H       1  UNL1        0.0534
     59 H           4.0856   -3.9479    0.0000 H       1  UNL1        0.0534
     60 H           7.8761    0.8290    0.0000 H       1  UNL1        0.0342
     61 H           8.4888    1.4561    0.0000 H       1  UNL1        0.0342
     62 H           7.8617    2.0689    0.0000 H       1  UNL1        0.0342
@<TRIPOS>BOND
     1     1    10    1
     2     1    12    1
     3    13     2    1
     4     2    28    1
     5     3    16    1
     6     3    26    1
     7     4    28    2
     8     5    12    1
     9     5    16    1
    10     5    25    1
    11     6     7    1
    12     6     8    1
    13     6    12    1
    14     6    14    1
    15     7     9    1
    16     7    15    1
    17     7    30    1
    18     8    11    1
    19     8    13    1
    20     8    31    1
    21     9    10    1
    22     9    17    1
    23     9    18    1
    24    10    13    1
    25    10    32    1
    26    11    16    1
    27    11    20    1
    28    11    24    1
    29    12    33    1
    30    13    34    1
    31    14    21    1
    32    14    35    1
    33    14    36    1
    34    15    19    1
    35    15    37    1
    36    15    38    1
    37    16    39    1
    38    17    22    1
    39    17    40    1
    40    17    41    1
    41    18    23    1
    42    18    42    1
    43    18    43    1
    44    19    22    1
    45    19    23    1
    46    19    44    1
    47    20    21    1
    48    20    45    1
    49    20    46    1
    50    21    47    1
    51    21    48    1
    52    22    49    1
    53    22    50    1
    54    23    27    2
    55    24    51    1
    56    24    52    1
    57    24    53    1
    58    25    26    1
    59    25    54    1
    60    25    55    1
    61    26    56    1
    62    26    57    1
    63    27    58    1
    64    27    59    1
    65    28    29    1
    66    29    60    1
    67    29    61    1
    68    29    62    1
