@<TRIPOS>MOLECULE
IMPHY008097
 37 39 0 0 0
SMALL
GASTEIGER

@<TRIPOS>ATOM
      1 O           7.3424   -1.0720    0.0000 O.3     1  UNL1       -0.4589
      2 O           8.1524    1.1238    0.0000 O.3     1  UNL1       -0.3773
      3 O           8.9260   -0.2673    0.0000 O.2     1  UNL1       -0.2476
      4 O           2.0000    0.7569    0.0000 O.2     1  UNL1       -0.2876
      5 C           6.3961    0.2327    0.0000 C.3     1  UNL1        0.0357
      6 C           4.6641   -0.7673    0.0000 C.3     1  UNL1       -0.0034
      7 C           4.6641    0.2327    0.0000 C.3     1  UNL1       -0.0034
      8 C           6.3961   -0.7673    0.0000 C.3     1  UNL1        0.1099
      9 C           5.5301    0.7327    0.0000 C.3     1  UNL1       -0.0360
     10 C           5.5301   -1.2673    0.0000 C.3     1  UNL1       -0.0059
     11 C           7.3424    0.5374    0.0000 C.3     1  UNL1        0.1653
     12 C           4.6641   -1.7673    0.0000 C.3     1  UNL1       -0.0554
     13 C           3.7702    0.7674    0.0000 C.2     1  UNL1       -0.0039
     14 C           3.7702   -1.3020    0.0000 C.2     1  UNL1       -0.0738
     15 C           7.9260   -0.2673    0.0000 C.2     1  UNL1        0.3395
     16 C           7.0350    1.4890    0.0000 C.3     1  UNL1       -0.0252
     17 C           2.8641    0.2535    0.0000 C.2     1  UNL1        0.1816
     18 C           2.8641   -0.7881    0.0000 C.2     1  UNL1       -0.0181
     19 C           3.7817    1.7673    0.0000 C.2     1  UNL1       -0.0916
     20 H           6.4861    1.0779    0.0000 H       1  UNL1        0.0370
     21 H           4.6706    1.0827    0.0000 H       1  UNL1        0.0358
     22 H           6.4861   -1.6125    0.0000 H       1  UNL1        0.0738
     23 H           5.9286    1.2076    0.0000 H       1  UNL1        0.0276
     24 H           5.1316    1.2076    0.0000 H       1  UNL1        0.0276
     25 H           5.1316   -1.7422    0.0000 H       1  UNL1        0.0309
     26 H           5.9286   -1.7422    0.0000 H       1  UNL1        0.0309
     27 H           4.0441   -1.7673    0.0000 H       1  UNL1        0.0238
     28 H           4.6641   -2.3873    0.0000 H       1  UNL1        0.0238
     29 H           5.2841   -1.7673    0.0000 H       1  UNL1        0.0238
     30 H           3.7773   -1.9219    0.0000 H       1  UNL1        0.0579
     31 H           7.6250    1.6796    0.0000 H       1  UNL1        0.0263
     32 H           6.8444    2.0790    0.0000 H       1  UNL1        0.0263
     33 H           6.4450    1.2985    0.0000 H       1  UNL1        0.0263
     34 H           2.3284   -1.1002    0.0000 H       1  UNL1        0.0653
     35 H           8.0887    1.7405    0.0000 H       1  UNL1        0.2109
     36 H           4.3222    2.0711    0.0000 H       1  UNL1        0.0539
     37 H           3.2484    2.0835    0.0000 H       1  UNL1        0.0539
@<TRIPOS>BOND
     1     1     8    1
     2     1    15    1
     3    11     2    1
     4     2    35    1
     5     3    15    2
     6     4    17    2
     7     5     8    1
     8     5     9    1
     9     5    11    1
    10     5    20    1
    11     6     7    1
    12     6    10    1
    13     6    12    1
    14     6    14    1
    15     7     9    1
    16     7    13    1
    17     7    21    1
    18     8    10    1
    19     8    22    1
    20     9    23    1
    21     9    24    1
    22    10    25    1
    23    10    26    1
    24    11    15    1
    25    11    16    1
    26    12    27    1
    27    12    28    1
    28    12    29    1
    29    13    17    1
    30    13    19    2
    31    14    18    2
    32    14    30    1
    33    16    31    1
    34    16    32    1
    35    16    33    1
    36    17    18    1
    37    18    34    1
    38    19    36    1
    39    19    37    1
