@<TRIPOS>MOLECULE
IMPHY005895
 31 31 0 0 0
SMALL
GASTEIGER

@<TRIPOS>ATOM
      1 O           2.6200    1.5000    0.0000 O.3     1  UNL1       -0.3883
      2 C           3.1200    0.6340    0.0000 C.3     1  UNL1        0.0684
      3 C           2.2540    0.1340    0.0000 C.3     1  UNL1       -0.0235
      4 C           3.9860    0.1340    0.0000 C.3     1  UNL1       -0.0235
      5 C           3.1200   -1.3660    0.0000 C.3     1  UNL1       -0.0437
      6 C           2.2540   -0.8660    0.0000 C.3     1  UNL1       -0.0479
      7 C           3.9860   -0.8660    0.0000 C.3     1  UNL1       -0.0479
      8 C           3.6200    1.5000    0.0000 C.3     1  UNL1       -0.0178
      9 C           3.1200   -2.3660    0.0000 C.3     1  UNL1       -0.0624
     10 C           4.6200    1.5000    0.0000 C.3     1  UNL1       -0.0601
     11 C           3.1200    2.3660    0.0000 C.3     1  UNL1       -0.0601
     12 H           2.0419    0.7166    0.0000 H       1  UNL1        0.0293
     13 H           1.6434    0.0263    0.0000 H       1  UNL1        0.0293
     14 H           4.5966    0.0263    0.0000 H       1  UNL1        0.0293
     15 H           4.1981    0.7166    0.0000 H       1  UNL1        0.0293
     16 H           2.5831   -1.6760    0.0000 H       1  UNL1        0.0298
     17 H           4.1981   -1.4486    0.0000 H       1  UNL1        0.0269
     18 H           4.5966   -0.7584    0.0000 H       1  UNL1        0.0269
     19 H           1.6434   -0.7584    0.0000 H       1  UNL1        0.0269
     20 H           2.0419   -1.4486    0.0000 H       1  UNL1        0.0269
     21 H           3.9300    0.9631    0.0000 H       1  UNL1        0.0323
     22 H           2.5000   -2.3660    0.0000 H       1  UNL1        0.0232
     23 H           3.1200   -2.9860    0.0000 H       1  UNL1        0.0232
     24 H           3.7400   -2.3660    0.0000 H       1  UNL1        0.0232
     25 H           4.6200    0.8800    0.0000 H       1  UNL1        0.0233
     26 H           5.2400    1.5000    0.0000 H       1  UNL1        0.0233
     27 H           4.6200    2.1200    0.0000 H       1  UNL1        0.0233
     28 H           3.6569    2.6760    0.0000 H       1  UNL1        0.0233
     29 H           2.8100    2.9030    0.0000 H       1  UNL1        0.0233
     30 H           2.5831    2.0560    0.0000 H       1  UNL1        0.0233
     31 H           2.0000    1.5000    0.0000 H       1  UNL1        0.2102
@<TRIPOS>BOND
     1     1     2    1
     2     1    31    1
     3     2     3    1
     4     2     4    1
     5     2     8    1
     6     3     6    1
     7     3    12    1
     8     3    13    1
     9     4     7    1
    10     4    14    1
    11     4    15    1
    12     5     6    1
    13     5     7    1
    14     5     9    1
    15     5    16    1
    16     6    19    1
    17     6    20    1
    18     7    17    1
    19     7    18    1
    20     8    10    1
    21     8    11    1
    22     8    21    1
    23     9    22    1
    24     9    23    1
    25     9    24    1
    26    10    25    1
    27    10    26    1
    28    10    27    1
    29    11    28    1
    30    11    29    1
    31    11    30    1
