@<TRIPOS>MOLECULE
IMPHY007712
 27 26 0 0 0
SMALL
GASTEIGER

@<TRIPOS>ATOM
      1 O           5.4641    0.7500    0.0000 O.3     1  UNL1       -0.4646
      2 O           8.9282    0.7500    0.0000 O.3     1  UNL1       -0.3915
      3 O           6.3301   -0.7500    0.0000 O.2     1  UNL1       -0.2508
      4 C           3.7320    0.7500    0.0000 C.3     1  UNL1       -0.0188
      5 C           8.0622    0.2500    0.0000 C.3     1  UNL1        0.0625
      6 C           7.1962    0.7500    0.0000 C.3     1  UNL1        0.0706
      7 C           2.8660    0.2500    0.0000 C.3     1  UNL1       -0.0528
      8 C           4.5981    0.2500    0.0000 C.3     1  UNL1        0.0924
      9 C           6.3301    0.2500    0.0000 C.2     1  UNL1        0.3096
     10 C           8.0622   -0.7500    0.0000 C.3     1  UNL1       -0.0384
     11 C           2.0000    0.7500    0.0000 C.3     1  UNL1       -0.0652
     12 H           4.1306    1.2250    0.0000 H       1  UNL1        0.0298
     13 H           3.3335    1.2250    0.0000 H       1  UNL1        0.0298
     14 H           8.0622    1.1000    0.0000 H       1  UNL1        0.0596
     15 H           7.5947    1.2250    0.0000 H       1  UNL1        0.0403
     16 H           6.7976    1.2250    0.0000 H       1  UNL1        0.0403
     17 H           2.4675   -0.2249    0.0000 H       1  UNL1        0.0264
     18 H           3.2646   -0.2249    0.0000 H       1  UNL1        0.0264
     19 H           4.1996   -0.2249    0.0000 H       1  UNL1        0.0697
     20 H           4.9966   -0.2249    0.0000 H       1  UNL1        0.0697
     21 H           7.4422   -0.7500    0.0000 H       1  UNL1        0.0255
     22 H           8.0622   -1.3700    0.0000 H       1  UNL1        0.0255
     23 H           8.6822   -0.7500    0.0000 H       1  UNL1        0.0255
     24 H           2.3100    1.2869    0.0000 H       1  UNL1        0.0230
     25 H           1.4631    1.0600    0.0000 H       1  UNL1        0.0230
     26 H           1.6900    0.2131    0.0000 H       1  UNL1        0.0230
     27 H           9.4651    0.4400    0.0000 H       1  UNL1        0.2098
@<TRIPOS>BOND
     1     1     8    1
     2     1     9    1
     3     2     5    1
     4     2    27    1
     5     3     9    2
     6     4     7    1
     7     4     8    1
     8     4    12    1
     9     4    13    1
    10     5     6    1
    11     5    10    1
    12     5    14    1
    13     6     9    1
    14     6    15    1
    15     6    16    1
    16     7    11    1
    17     7    17    1
    18     7    18    1
    19     8    19    1
    20     8    20    1
    21    10    21    1
    22    10    22    1
    23    10    23    1
    24    11    24    1
    25    11    25    1
    26    11    26    1
