@<TRIPOS>MOLECULE
IMPHY010634
 58 60 0 0 0
SMALL
GASTEIGER

@<TRIPOS>ATOM
      1 N          11.8384   -2.8823    0.0000 N.ar    1  UNL1       -0.2414
      2 C          10.5683   -3.7453    0.0000 C.2     1  UNL1        0.3246
      3 N           9.1516   -3.1754    0.0000 N.am    1  UNL1       -0.2578
      4 C           7.8977   -4.0221    0.0000 C.3     1  UNL1        0.1424
      5 C           6.4810   -3.4522    0.0000 C.3     1  UNL1        0.2269
      6 O           5.2109   -4.2990    0.0000 O.3     1  UNL1       -0.4719
      7 C           3.7942   -3.7290    0.0000 C.ar    1  UNL1        0.1595
      8 C           2.6217   -4.7224    0.0000 C.ar    1  UNL1        0.0932
      9 C           1.1887   -4.1850    0.0000 C.ar    1  UNL1        0.0259
     10 C           0.9282   -2.6869    0.0000 C.ar    1  UNL1        0.0596
     11 C           2.1006   -1.7098    0.0000 C.ar    1  UNL1        0.0259
     12 C           3.5336   -2.2309    0.0000 C.ar    1  UNL1        0.0932
     13 CL          4.2827   -1.5633    0.0000 Cl      1  UNL1       -0.0790
     14 CL          0.0000   -2.3123    0.0000 Cl      1  UNL1       -0.0822
     15 CL          2.7683   -5.7157    0.0000 Cl      1  UNL1       -0.0790
     16 C           8.9399   -1.6610    0.0000 C.3     1  UNL1        0.0953
     17 C           7.5720   -0.9933    0.0000 C.3     1  UNL1        0.0216
     18 C           7.4418    0.0000    0.0000 C.3     1  UNL1        0.0018
     19 O          10.6334   -4.7386    0.0000 O.2     1  UNL1       -0.2489
     20 C          13.2551   -3.4033    0.0000 C.ar    1  UNL1        0.1862
     21 N          14.1996   -2.2146    0.0000 N.ar    1  UNL1       -0.2219
     22 C          13.3529   -0.9608    0.0000 C.ar    1  UNL1        0.1198
     23 C          11.8873   -1.3679    0.0000 C.ar    1  UNL1        0.1064
     24 O           9.8029  -12.7341    0.0000 O.3     2  UNL2       -0.3392
     25 C           9.1842  -14.1182    0.0000 C.3     2  UNL2        0.1953
     26 C          10.0635  -15.3558    0.0000 C.3     2  UNL2        0.1759
     27 C          11.5779  -15.1929    0.0000 C.3     2  UNL2        0.1590
     28 C          12.1967  -13.8088    0.0000 C.3     2  UNL2        0.1545
     29 C          11.3174  -12.5875    0.0000 C.3     2  UNL2        0.1314
     30 C          11.9850  -11.2034    0.0000 C.3     2  UNL2        0.2073
     31 O          11.4802  -10.3403    0.0000 O.3     2  UNL2       -0.2181
     32 H          10.7800  -11.8222    0.0000 H       2  UNL2        0.0657
     33 O          13.1900  -13.6622    0.0000 O.3     2  UNL2       -0.2254
     34 H          12.7503  -14.5416    0.0000 H       2  UNL2        0.0683
     35 O          12.1967  -15.9909    0.0000 O.3     2  UNL2       -0.2253
     36 H          11.2197  -16.0397    0.0000 H       2  UNL2        0.0685
     37 O           9.6890  -16.2840    0.0000 O.3     2  UNL2       -0.2230
     38 H           9.1516  -15.4698    0.0000 H       2  UNL2        0.0708
     39 O           7.6535  -14.2810    0.0000 O.3     2  UNL2       -0.3091
     40 C           6.6927  -13.1249    0.0000 C.3     2  UNL2        0.2119
     41 O           7.2626  -11.7082    0.0000 O.2     2  UNL2       -0.4587
     42 C           6.3182  -10.5032    0.0000 C.2     2  UNL2        0.1762
     43 C           4.8038  -10.7149    0.0000 C.2     2  UNL2        0.0867
     44 C           4.2338  -12.1316    0.0000 C.3     2  UNL2        0.0218
     45 C           5.1783  -13.3366    0.0000 C.3     2  UNL2        0.0557
     46 C           4.6572  -14.7533    0.0000 C.2     2  UNL2       -0.0252
     47 C           3.6802  -14.9975    0.0000 C.2     2  UNL2       -0.0051
     48 H           4.2664  -13.4668    0.0000 H       2  UNL2        0.0416
     49 C           2.7194  -12.2781    0.0000 C.3     2  UNL2        0.0728
     50 C           2.0029  -13.6297    0.0000 C.2     2  UNL2        0.2074
     51 O           1.0096  -13.7274    0.0000 O.2     2  UNL2       -0.2883
     52 H           3.6150  -12.7992    0.0000 H       2  UNL2        0.0370
     53 C           3.9082   -9.4773    0.0000 C.2     2  UNL2        0.3400
     54 O           4.4455   -8.0443    0.0000 O.3     2  UNL2       -0.4415
     55 C           3.8430   -7.2301    0.0000 C.3     2  UNL2        0.2559
     56 O           2.9148   -9.5913    0.0000 O.2     2  UNL2       -0.2451
     57 H           6.3507  -13.9716    0.0000 H       2  UNL2        0.1063
     58 H           8.6468  -13.3854    0.0000 H       2  UNL2        0.0940
@<TRIPOS>BOND
     1     1     2   am
     2     1    20   ar
     3     1    23   ar
     4     2     3   am
     5     2    19    2
     6     3     4    1
     7     3    16    1
     8     4     5    1
     9     5     6    1
    10     6     7    1
    11     7     8   ar
    12     7    12   ar
    13     8     9   ar
    14     8    15    1
    15     9    10   ar
    16    10    11   ar
    17    10    14    1
    18    11    12   ar
    19    12    13    1
    20    16    17    1
    21    17    18    1
    22    20    21   ar
    23    21    22   ar
    24    22    23   ar
    25    24    25    1
    26    24    29    1
    27    25    26    1
    28    25    39    1
    29    25    58    1
    30    26    27    1
    31    26    37    1
    32    26    38    1
    33    27    28    1
    34    27    35    1
    35    27    36    1
    36    28    29    1
    37    28    33    1
    38    28    34    1
    39    29    30    1
    40    29    32    1
    41    30    31    1
    42    39    40    1
    43    40    41    1
    44    40    45    1
    45    40    57    1
    46    41    42    1
    47    42    43    2
    48    43    44    1
    49    43    53    1
    50    44    45    1
    51    44    49    1
    52    44    52    1
    53    45    46    1
    54    45    48    1
    55    46    47    2
    56    49    50    1
    57    50    51    2
    58    53    54    1
    59    53    56    2
    60    54    55    1
