@<TRIPOS>MOLECULE
IMPHY000784
 39 41 0 0 0
SMALL
GASTEIGER

@<TRIPOS>ATOM
      1 O           4.0488    1.5988    0.0000 O.3     1  UNL1       -0.3652
      2 O           3.7104    0.9316    0.0000 O.3     1  UNL1       -0.3810
      3 C           5.5161    0.0895    0.0000 C.3     1  UNL1        0.0032
      4 C           4.6501    0.5895    0.0000 C.3     1  UNL1        0.1210
      5 C           3.7401    0.0827    0.0000 C.3     1  UNL1        0.0989
      6 C           5.5322   -0.9520    0.0000 C.3     1  UNL1       -0.0440
      7 C           6.3821    0.5895    0.0000 C.3     1  UNL1       -0.0420
      8 C           3.7320   -0.9589    0.0000 C.3     1  UNL1        0.0089
      9 C           5.5161    2.0895    0.0000 C.3     1  UNL1        0.0827
     10 C           4.6501    1.5895    0.0000 C.2     1  UNL1       -0.0141
     11 C           4.6341   -1.4797    0.0000 C.3     1  UNL1       -0.0435
     12 C           6.3821    1.5895    0.0000 C.3     1  UNL1       -0.0220
     13 C           6.3821   -0.4105    0.0000 C.3     1  UNL1       -0.0565
     14 C           2.8641   -1.4556    0.0000 C.2     1  UNL1       -0.0741
     15 C           4.1501    2.4556    0.0000 C.2     1  UNL1       -0.0942
     16 C           2.8602   -2.4556    0.0000 C.3     1  UNL1       -0.0437
     17 C           2.0000   -0.9522    0.0000 C.2     1  UNL1       -0.0994
     18 H           3.1234    0.1472    0.0000 H       1  UNL1        0.0634
     19 H           5.7502   -1.5324    0.0000 H       1  UNL1        0.0272
     20 H           6.1413   -0.8365    0.0000 H       1  UNL1        0.0272
     21 H           6.5942    0.0069    0.0000 H       1  UNL1        0.0272
     22 H           6.9927    0.6972    0.0000 H       1  UNL1        0.0272
     23 H           3.7308   -1.5789    0.0000 H       1  UNL1        0.0372
     24 H           5.5783    2.7064    0.0000 H       1  UNL1        0.0644
     25 H           4.2368   -1.9557    0.0000 H       1  UNL1        0.0272
     26 H           5.0351   -1.9526    0.0000 H       1  UNL1        0.0272
     27 H           6.9927    1.4819    0.0000 H       1  UNL1        0.0294
     28 H           6.5942    2.1721    0.0000 H       1  UNL1        0.0294
     29 H           6.0721   -0.9474    0.0000 H       1  UNL1        0.0236
     30 H           6.9191   -0.7205    0.0000 H       1  UNL1        0.0236
     31 H           6.6921    0.1265    0.0000 H       1  UNL1        0.0236
     32 H           3.2354    0.5330    0.0000 H       1  UNL1        0.2107
     33 H           4.4601    2.9925    0.0000 H       1  UNL1        0.0536
     34 H           3.5301    2.4556    0.0000 H       1  UNL1        0.0536
     35 H           2.2402   -2.4532    0.0000 H       1  UNL1        0.0274
     36 H           2.8578   -3.0756    0.0000 H       1  UNL1        0.0274
     37 H           3.4802   -2.4580    0.0000 H       1  UNL1        0.0274
     38 H           2.0024   -0.3322    0.0000 H       1  UNL1        0.0534
     39 H           1.4619   -1.2602    0.0000 H       1  UNL1        0.0534
@<TRIPOS>BOND
     1     1     5    1
     2     1     9    1
     3     2     4    1
     4     2    32    1
     5     3     4    1
     6     3     6    1
     7     3     7    1
     8     3    13    1
     9     4     5    1
    10     4    10    1
    11     5     8    1
    12     5    18    1
    13     6    11    1
    14     6    19    1
    15     6    20    1
    16     7    12    1
    17     7    21    1
    18     7    22    1
    19     8    11    1
    20     8    14    1
    21     8    23    1
    22     9    10    1
    23     9    12    1
    24     9    24    1
    25    10    15    2
    26    11    25    1
    27    11    26    1
    28    12    27    1
    29    12    28    1
    30    13    29    1
    31    13    30    1
    32    13    31    1
    33    14    16    1
    34    14    17    2
    35    15    33    1
    36    15    34    1
    37    16    35    1
    38    16    36    1
    39    16    37    1
    40    17    38    1
    41    17    39    1
