@<TRIPOS>MOLECULE
IMPHY004863
 92 94 0 0 0
SMALL
GASTEIGER

@<TRIPOS>ATOM
      1 O           8.0622   -0.5265    0.0000 O.3     1  UNL1       -0.5060
      2 O           6.3301   -3.5265    0.0000 O.3     1  UNL1       -0.5055
      3 O           4.5981   -0.5265    0.0000 O.3     1  UNL1       -0.5055
      4 O           7.6157    2.0056    0.0000 O.3     1  UNL1       -0.5055
      5 O          10.0318   -2.1792    0.0000 O.3     1  UNL1       -0.5055
      6 O           4.3605    0.8208    0.0000 O.3     1  UNL1       -0.5060
      7 O           7.3781   -4.4059    0.0000 O.3     1  UNL1       -0.5060
      8 O           4.9620    4.2322    0.0000 O.3     1  UNL1       -0.4939
      9 O          10.6334   -5.5906    0.0000 O.3     1  UNL1       -0.4939
     10 O           4.5981   -3.5265    0.0000 O.2     1  UNL1       -0.2918
     11 O           7.9165    3.7113    0.0000 O.2     1  UNL1       -0.2918
     12 O          11.6594   -2.7716    0.0000 O.2     1  UNL1       -0.2918
     13 C           6.3301   -0.5265    0.0000 C.ar    1  UNL1        0.0411
     14 C           7.1962   -2.0265    0.0000 C.ar    1  UNL1        0.0411
     15 C           6.3301    0.4735    0.0000 C.3     1  UNL1        0.0115
     16 C           8.0622   -2.5265    0.0000 C.3     1  UNL1        0.0115
     17 C           7.1962   -1.0265    0.0000 C.ar    1  UNL1        0.1308
     18 C           5.9881    1.4132    0.0000 C.ar    1  UNL1        0.0411
     19 C           8.7050   -3.2925    0.0000 C.ar    1  UNL1        0.0411
     20 C           5.4641   -2.0265    0.0000 C.ar    1  UNL1        0.1008
     21 C           6.3301   -2.5265    0.0000 C.ar    1  UNL1        0.1378
     22 C           5.4641   -1.0265    0.0000 C.ar    1  UNL1        0.1378
     23 C           6.6309    2.1792    0.0000 C.ar    1  UNL1        0.1378
     24 C           9.6898   -3.1189    0.0000 C.ar    1  UNL1        0.1378
     25 C           5.0034    1.5869    0.0000 C.ar    1  UNL1        0.1302
     26 C           8.3630   -4.2323    0.0000 C.ar    1  UNL1        0.1302
     27 C           6.2889    3.1189    0.0000 C.ar    1  UNL1        0.1010
     28 C          10.3326   -3.8850    0.0000 C.ar    1  UNL1        0.1010
     29 C           4.6613    2.5265    0.0000 C.ar    1  UNL1        0.0337
     30 C           9.0058   -4.9983    0.0000 C.ar    1  UNL1        0.0337
     31 C           4.5981   -2.5265    0.0000 C.2     1  UNL1        0.1702
     32 C           5.3041    3.2925    0.0000 C.ar    1  UNL1        0.1404
     33 C           9.9906   -4.8246    0.0000 C.ar    1  UNL1        0.1404
     34 C           3.7320   -2.0265    0.0000 C.3     1  UNL1        0.0105
     35 C           6.9317    3.8849    0.0000 C.2     1  UNL1        0.1702
     36 C          11.3174   -3.7113    0.0000 C.2     1  UNL1        0.1702
     37 C           2.8660   -2.5265    0.0000 C.3     1  UNL1       -0.0489
     38 C           6.5896    4.8246    0.0000 C.3     1  UNL1        0.0105
     39 C          11.9602   -4.4774    0.0000 C.3     1  UNL1        0.0105
     40 C           3.6765    2.7002    0.0000 C.3     1  UNL1       -0.0327
     41 C           8.6638   -5.9380    0.0000 C.3     1  UNL1       -0.0327
     42 C           7.2324    5.5907    0.0000 C.3     1  UNL1       -0.0489
     43 C          12.9450   -4.3037    0.0000 C.3     1  UNL1       -0.0489
     44 C           2.0000   -2.0265    0.0000 C.3     1  UNL1       -0.0649
     45 C           6.8904    6.5304    0.0000 C.3     1  UNL1       -0.0649
     46 C          13.5878   -5.0698    0.0000 C.3     1  UNL1       -0.0649
     47 C           3.9772    4.4059    0.0000 C.3     1  UNL1        0.0788
     48 C          10.2914   -6.5304    0.0000 C.3     1  UNL1        0.0788
     49 H           6.8994    0.2279    0.0000 H       1  UNL1        0.0366
     50 H           5.7196    0.3658    0.0000 H       1  UNL1        0.0366
     51 H           8.6561   -2.3487    0.0000 H       1  UNL1        0.0366
     52 H           7.6637   -3.0015    0.0000 H       1  UNL1        0.0366
     53 H           4.1306   -1.5516    0.0000 H       1  UNL1        0.0345
     54 H           3.3335   -1.5516    0.0000 H       1  UNL1        0.0345
     55 H           2.4675   -3.0015    0.0000 H       1  UNL1        0.0267
     56 H           3.2646   -3.0015    0.0000 H       1  UNL1        0.0267
     57 H           6.1911    5.2996    0.0000 H       1  UNL1        0.0345
     58 H           6.0527    4.5146    0.0000 H       1  UNL1        0.0345
     59 H          11.4232   -4.7874    0.0000 H       1  UNL1        0.0345
     60 H          12.1722   -5.0600    0.0000 H       1  UNL1        0.0345
     61 H           8.5991   -0.8365    0.0000 H       1  UNL1        0.2922
     62 H           3.7842    3.3108    0.0000 H       1  UNL1        0.0280
     63 H           3.0660    2.8079    0.0000 H       1  UNL1        0.0280
     64 H           3.5688    2.0896    0.0000 H       1  UNL1        0.0280
     65 H           8.0811   -5.7259    0.0000 H       1  UNL1        0.0280
     66 H           8.4517   -6.5206    0.0000 H       1  UNL1        0.0280
     67 H           9.2464   -6.1501    0.0000 H       1  UNL1        0.0280
     68 H           6.8671   -3.8365    0.0000 H       1  UNL1        0.2922
     69 H           4.5981    0.0935    0.0000 H       1  UNL1        0.2922
     70 H           7.6310    5.1157    0.0000 H       1  UNL1        0.0267
     71 H           7.7694    5.9007    0.0000 H       1  UNL1        0.0267
     72 H          13.4819   -3.9937    0.0000 H       1  UNL1        0.0267
     73 H          12.7329   -3.7211    0.0000 H       1  UNL1        0.0267
     74 H           7.8278    1.4229    0.0000 H       1  UNL1        0.2922
     75 H          10.6424   -2.0716    0.0000 H       1  UNL1        0.2922
     76 H           3.7499    0.9285    0.0000 H       1  UNL1        0.2922
     77 H           7.1660   -4.9885    0.0000 H       1  UNL1        0.2922
     78 H           2.3100   -1.4896    0.0000 H       1  UNL1        0.0230
     79 H           1.4631   -1.7165    0.0000 H       1  UNL1        0.0230
     80 H           1.6900   -2.5635    0.0000 H       1  UNL1        0.0230
     81 H           7.4730    6.7424    0.0000 H       1  UNL1        0.0230
     82 H           6.6784    7.1130    0.0000 H       1  UNL1        0.0230
     83 H           6.3078    6.3183    0.0000 H       1  UNL1        0.0230
     84 H          13.1128   -5.4683    0.0000 H       1  UNL1        0.0230
     85 H          13.9863   -5.5447    0.0000 H       1  UNL1        0.0230
     86 H          14.0627   -4.6712    0.0000 H       1  UNL1        0.0230
     87 H           4.0849    5.0165    0.0000 H       1  UNL1        0.0660
     88 H           3.3667    4.5135    0.0000 H       1  UNL1        0.0660
     89 H           3.8696    3.7953    0.0000 H       1  UNL1        0.0660
     90 H           9.7088   -6.3183    0.0000 H       1  UNL1        0.0660
     91 H          10.0793   -7.1130    0.0000 H       1  UNL1        0.0660
     92 H          10.8740   -6.7424    0.0000 H       1  UNL1        0.0660
@<TRIPOS>BOND
     1     1    17    1
     2     1    61    1
     3     2    21    1
     4     2    68    1
     5     3    22    1
     6     3    69    1
     7     4    23    1
     8     4    74    1
     9     5    24    1
    10     5    75    1
    11     6    25    1
    12     6    76    1
    13     7    26    1
    14     7    77    1
    15     8    32    1
    16     8    47    1
    17     9    33    1
    18     9    48    1
    19    10    31    2
    20    11    35    2
    21    12    36    2
    22    13    15    1
    23    13    17   ar
    24    13    22   ar
    25    14    16    1
    26    14    17   ar
    27    14    21   ar
    28    15    18    1
    29    15    49    1
    30    15    50    1
    31    16    19    1
    32    16    51    1
    33    16    52    1
    34    18    23   ar
    35    18    25   ar
    36    19    24   ar
    37    19    26   ar
    38    20    21   ar
    39    20    22   ar
    40    20    31    1
    41    23    27   ar
    42    24    28   ar
    43    25    29   ar
    44    26    30   ar
    45    27    32   ar
    46    27    35    1
    47    28    33   ar
    48    28    36    1
    49    29    32   ar
    50    29    40    1
    51    30    33   ar
    52    30    41    1
    53    31    34    1
    54    34    37    1
    55    34    53    1
    56    34    54    1
    57    35    38    1
    58    36    39    1
    59    37    44    1
    60    37    55    1
    61    37    56    1
    62    38    42    1
    63    38    57    1
    64    38    58    1
    65    39    43    1
    66    39    59    1
    67    39    60    1
    68    40    62    1
    69    40    63    1
    70    40    64    1
    71    41    65    1
    72    41    66    1
    73    41    67    1
    74    42    45    1
    75    42    70    1
    76    42    71    1
    77    43    46    1
    78    43    72    1
    79    43    73    1
    80    44    78    1
    81    44    79    1
    82    44    80    1
    83    45    81    1
    84    45    82    1
    85    45    83    1
    86    46    84    1
    87    46    85    1
    88    46    86    1
    89    47    87    1
    90    47    88    1
    91    47    89    1
    92    48    90    1
    93    48    91    1
    94    48    92    1
