@<TRIPOS>MOLECULE
IMPHY016319
 46 46 0 0 0
SMALL
GASTEIGER

@<TRIPOS>ATOM
      1 N           4.5981   -1.5670    0.0000 N.ar    1  UNL1       -0.2358
      2 N           5.4641   -0.0670    0.0000 N.ar    1  UNL1       -0.2358
      3 C           2.8660   -1.5670    0.0000 C.3     1  UNL1        0.0046
      4 C           4.5981    1.4330    0.0000 C.3     1  UNL1        0.0046
      5 C           6.3301   -1.5670    0.0000 C.3     1  UNL1        0.0220
      6 C           3.7320   -1.0670    0.0000 C.ar    1  UNL1        0.0504
      7 C           4.5981    0.4330    0.0000 C.ar    1  UNL1        0.0504
      8 C           5.4641   -1.0670    0.0000 C.ar    1  UNL1        0.1349
      9 C           3.7320   -0.0670    0.0000 C.ar    1  UNL1       -0.0180
     10 C           2.0000   -2.0670    0.0000 C.3     1  UNL1       -0.0546
     11 C           2.3660   -0.7010    0.0000 C.3     1  UNL1       -0.0546
     12 C           3.3660   -2.4330    0.0000 C.3     1  UNL1       -0.0546
     13 C           4.5981    2.4330    0.0000 C.3     1  UNL1       -0.0546
     14 C           5.5981    1.4330    0.0000 C.3     1  UNL1       -0.0546
     15 C           3.5981    1.4330    0.0000 C.3     1  UNL1       -0.0546
     16 C           7.1962   -2.0670    0.0000 C.3     1  UNL1       -0.0531
     17 C           5.8301   -2.4330    0.0000 C.3     1  UNL1       -0.0531
     18 C           6.8301   -0.7010    0.0000 C.3     1  UNL1       -0.0531
     19 H           3.1951    0.2430    0.0000 H       1  UNL1        0.0654
     20 H           1.6900   -1.5300    0.0000 H       1  UNL1        0.0239
     21 H           1.4631   -2.3770    0.0000 H       1  UNL1        0.0239
     22 H           2.3100   -2.6039    0.0000 H       1  UNL1        0.0239
     23 H           2.9030   -0.3910    0.0000 H       1  UNL1        0.0239
     24 H           2.0560   -0.1640    0.0000 H       1  UNL1        0.0239
     25 H           1.8291   -1.0110    0.0000 H       1  UNL1        0.0239
     26 H           2.8291   -2.7430    0.0000 H       1  UNL1        0.0239
     27 H           3.6760   -2.9700    0.0000 H       1  UNL1        0.0239
     28 H           3.9030   -2.1230    0.0000 H       1  UNL1        0.0239
     29 H           5.2181    2.4330    0.0000 H       1  UNL1        0.0239
     30 H           4.5981    3.0530    0.0000 H       1  UNL1        0.0239
     31 H           3.9781    2.4330    0.0000 H       1  UNL1        0.0239
     32 H           5.5981    0.8130    0.0000 H       1  UNL1        0.0239
     33 H           6.2181    1.4330    0.0000 H       1  UNL1        0.0239
     34 H           5.5981    2.0530    0.0000 H       1  UNL1        0.0239
     35 H           3.5981    2.0530    0.0000 H       1  UNL1        0.0239
     36 H           2.9781    1.4330    0.0000 H       1  UNL1        0.0239
     37 H           3.5981    0.8130    0.0000 H       1  UNL1        0.0239
     38 H           6.8862   -2.6039    0.0000 H       1  UNL1        0.0239
     39 H           7.7331   -2.3770    0.0000 H       1  UNL1        0.0239
     40 H           7.5062   -1.5300    0.0000 H       1  UNL1        0.0239
     41 H           5.2932   -2.1230    0.0000 H       1  UNL1        0.0239
     42 H           5.5201   -2.9700    0.0000 H       1  UNL1        0.0239
     43 H           6.3671   -2.7430    0.0000 H       1  UNL1        0.0239
     44 H           7.3671   -1.0110    0.0000 H       1  UNL1        0.0239
     45 H           7.1401   -0.1640    0.0000 H       1  UNL1        0.0239
     46 H           6.2932   -0.3910    0.0000 H       1  UNL1        0.0239
@<TRIPOS>BOND
     1     1     6   ar
     2     1     8   ar
     3     2     7   ar
     4     2     8   ar
     5     3     6    1
     6     3    10    1
     7     3    11    1
     8     3    12    1
     9     4     7    1
    10     4    13    1
    11     4    14    1
    12     4    15    1
    13     5     8    1
    14     5    16    1
    15     5    17    1
    16     5    18    1
    17     6     9   ar
    18     7     9   ar
    19     9    19    1
    20    10    20    1
    21    10    21    1
    22    10    22    1
    23    11    23    1
    24    11    24    1
    25    11    25    1
    26    12    26    1
    27    12    27    1
    28    12    28    1
    29    13    29    1
    30    13    30    1
    31    13    31    1
    32    14    32    1
    33    14    33    1
    34    14    34    1
    35    15    35    1
    36    15    36    1
    37    15    37    1
    38    16    38    1
    39    16    39    1
    40    16    40    1
    41    17    41    1
    42    17    42    1
    43    17    43    1
    44    18    44    1
    45    18    45    1
    46    18    46    1
