@<TRIPOS>MOLECULE
IMPHY000929
 78 81 0 0 0
SMALL
GASTEIGER

@<TRIPOS>ATOM
      1 O           7.9174   -2.3134    0.0000 O.3     1  UNL1       -0.3837
      2 O          10.1248    0.6311    0.0000 O.3     1  UNL1       -0.3860
      3 O           2.5405   -1.2742    0.0000 O.3     1  UNL1       -0.3892
      4 O           8.8172    2.6366    0.0000 O.3     1  UNL1       -0.3889
      5 O           6.1733   -4.3827    0.0000 O.2     1  UNL1       -0.2924
      6 O           2.5244   -3.3658    0.0000 O.3     1  UNL1       -0.3892
      7 O          10.1063    3.7934    0.0000 O.3     1  UNL1       -0.3914
      8 C           7.9174   -0.3134    0.0000 C.3     1  UNL1        0.0061
      9 C           7.9174   -1.3134    0.0000 C.3     1  UNL1        0.0934
     10 C           8.8637   -0.0087    0.0000 C.3     1  UNL1       -0.0015
     11 C           6.1854   -1.3134    0.0000 C.3     1  UNL1       -0.0107
     12 C           5.2754   -1.8203    0.0000 C.3     1  UNL1       -0.0132
     13 C           7.0514    0.1866    0.0000 C.3     1  UNL1       -0.0438
     14 C           7.0514   -1.8134    0.0000 C.2     1  UNL1       -0.0310
     15 C           8.8637   -1.6182    0.0000 C.3     1  UNL1       -0.0192
     16 C           9.4473   -0.8134    0.0000 C.3     1  UNL1       -0.0440
     17 C           6.1854   -0.3134    0.0000 C.3     1  UNL1       -0.0453
     18 C           5.2674   -2.8619    0.0000 C.3     1  UNL1        0.0299
     19 C           9.1743    0.9418    0.0000 C.3     1  UNL1        0.0925
     20 C           7.9174    0.6866    0.0000 C.3     1  UNL1       -0.0563
     21 C           4.3486   -1.2562    0.0000 C.3     1  UNL1       -0.0178
     22 C           7.0675   -2.8550    0.0000 C.2     1  UNL1       -0.0167
     23 C           4.3319   -3.4116    0.0000 C.3     1  UNL1       -0.0141
     24 C           5.2831   -0.8203    0.0000 C.3     1  UNL1       -0.0583
     25 C           6.1694   -3.3827    0.0000 C.2     1  UNL1        0.1598
     26 C           3.4007   -1.7842    0.0000 C.3     1  UNL1        0.0816
     27 C           9.4850    1.8923    0.0000 C.3     1  UNL1        0.0862
     28 C           3.3923   -2.8691    0.0000 C.3     1  UNL1        0.0817
     29 C           8.2238    1.2525    0.0000 C.3     1  UNL1       -0.0334
     30 C          10.4635    2.0986    0.0000 C.3     1  UNL1        0.0022
     31 C          10.7742    3.0491    0.0000 C.3     1  UNL1        0.0600
     32 C          11.7527    3.2553    0.0000 C.3     1  UNL1       -0.0205
     33 C          12.0633    4.2058    0.0000 C.3     1  UNL1       -0.0603
     34 C          12.4205    2.5110    0.0000 C.3     1  UNL1       -0.0603
     35 H           9.7034    0.1232    0.0000 H       1  UNL1        0.0336
     36 H           6.9215   -0.8884    0.0000 H       1  UNL1        0.0352
     37 H           7.4500    0.6615    0.0000 H       1  UNL1        0.0272
     38 H           6.6529    0.6615    0.0000 H       1  UNL1        0.0272
     39 H           8.6126   -2.1851    0.0000 H       1  UNL1        0.0296
     40 H           9.4010   -1.9274    0.0000 H       1  UNL1        0.0296
     41 H           9.9081   -1.2282    0.0000 H       1  UNL1        0.0270
     42 H           9.9081   -0.3987    0.0000 H       1  UNL1        0.0270
     43 H           5.9733    0.2692    0.0000 H       1  UNL1        0.0271
     44 H           5.5748   -0.4211    0.0000 H       1  UNL1        0.0271
     45 H           5.2706   -3.7119    0.0000 H       1  UNL1        0.0387
     46 H           8.5374    0.6866    0.0000 H       1  UNL1        0.0236
     47 H           7.9174    1.3066    0.0000 H       1  UNL1        0.0236
     48 H           7.2974    0.6866    0.0000 H       1  UNL1        0.0236
     49 H           4.7568   -0.7896    0.0000 H       1  UNL1        0.0297
     50 H           3.9586   -0.7742    0.0000 H       1  UNL1        0.0297
     51 H           7.6080   -3.1587    0.0000 H       1  UNL1        0.0653
     52 H           3.9346   -3.8876    0.0000 H       1  UNL1        0.0298
     53 H           4.7329   -3.8845    0.0000 H       1  UNL1        0.0298
     54 H           5.9031   -0.8251    0.0000 H       1  UNL1        0.0235
     55 H           5.2879   -0.2003    0.0000 H       1  UNL1        0.0235
     56 H           4.6631   -0.8155    0.0000 H       1  UNL1        0.0235
     57 H           2.8608   -2.0890    0.0000 H       1  UNL1        0.0619
     58 H           8.4544   -2.6234    0.0000 H       1  UNL1        0.2106
     59 H           8.8783    1.7645    0.0000 H       1  UNL1        0.0623
     60 H           2.8572   -2.5560    0.0000 H       1  UNL1        0.0619
     61 H           8.4164    1.8418    0.0000 H       1  UNL1        0.0258
     62 H           7.6345    1.4451    0.0000 H       1  UNL1        0.0258
     63 H           8.0312    0.6632    0.0000 H       1  UNL1        0.0258
     64 H          10.5863    1.0452    0.0000 H       1  UNL1        0.2103
     65 H          10.4841    1.4789    0.0000 H       1  UNL1        0.0316
     66 H          11.0773    2.0112    0.0000 H       1  UNL1        0.0316
     67 H           2.0000   -1.5779    0.0000 H       1  UNL1        0.2099
     68 H           9.0098    3.2260    0.0000 H       1  UNL1        0.2099
     69 H           2.5220   -3.9858    0.0000 H       1  UNL1        0.2099
     70 H          10.9668    3.6384    0.0000 H       1  UNL1        0.0596
     71 H          11.5601    2.6660    0.0000 H       1  UNL1        0.0320
     72 H          10.2989    4.3827    0.0000 H       1  UNL1        0.2098
     73 H          12.6526    4.0132    0.0000 H       1  UNL1        0.0233
     74 H          12.2559    4.7951    0.0000 H       1  UNL1        0.0233
     75 H          11.4740    4.3984    0.0000 H       1  UNL1        0.0233
     76 H          11.9590    2.0969    0.0000 H       1  UNL1        0.0233
     77 H          12.8346    2.0495    0.0000 H       1  UNL1        0.0233
     78 H          12.8820    2.9250    0.0000 H       1  UNL1        0.0233
@<TRIPOS>BOND
     1     9     1    1
     2     1    58    1
     3    19     2    1
     4     2    64    1
     5    26     3    1
     6     3    67    1
     7    27     4    1
     8     4    68    1
     9     5    25    2
    10    28     6    1
    11     6    69    1
    12    31     7    1
    13     7    72    1
    14     8     9    1
    15     8    10    1
    16     8    13    1
    17     8    20    1
    18     9    14    1
    19     9    15    1
    20    10    16    1
    21    10    19    1
    22    10    35    1
    23    11    12    1
    24    11    14    1
    25    11    17    1
    26    11    36    1
    27    12    18    1
    28    12    21    1
    29    12    24    1
    30    13    17    1
    31    13    37    1
    32    13    38    1
    33    14    22    2
    34    15    16    1
    35    15    39    1
    36    15    40    1
    37    16    41    1
    38    16    42    1
    39    17    43    1
    40    17    44    1
    41    18    23    1
    42    18    25    1
    43    18    45    1
    44    19    27    1
    45    19    29    1
    46    20    46    1
    47    20    47    1
    48    20    48    1
    49    21    26    1
    50    21    49    1
    51    21    50    1
    52    22    25    1
    53    22    51    1
    54    23    28    1
    55    23    52    1
    56    23    53    1
    57    24    54    1
    58    24    55    1
    59    24    56    1
    60    26    28    1
    61    26    57    1
    62    27    30    1
    63    27    59    1
    64    28    60    1
    65    29    61    1
    66    29    62    1
    67    29    63    1
    68    30    31    1
    69    30    65    1
    70    30    66    1
    71    31    32    1
    72    31    70    1
    73    32    33    1
    74    32    34    1
    75    32    71    1
    76    33    73    1
    77    33    74    1
    78    33    75    1
    79    34    76    1
    80    34    77    1
    81    34    78    1
