@<TRIPOS>MOLECULE
IMPHY006545
 19 19 0 0 0
SMALL
GASTEIGER

@<TRIPOS>ATOM
      1 O           2.5369   -0.0600    0.0000 O.3     1  UNL1       -0.5059
      2 O           5.1350    1.4400    0.0000 O.3     1  UNL1       -0.4770
      3 O           3.4030    1.4400    0.0000 O.2     1  UNL1       -0.2450
      4 C           5.1350   -1.5600    0.0000 C.ar    1  UNL1       -0.0494
      5 C           4.2690   -0.0600    0.0000 C.ar    1  UNL1        0.1003
      6 C           5.1350   -0.5600    0.0000 C.ar    1  UNL1       -0.0413
      7 C           3.4030   -0.5600    0.0000 C.ar    1  UNL1        0.1308
      8 C           4.2690   -2.0600    0.0000 C.ar    1  UNL1       -0.0553
      9 C           3.4030   -1.5600    0.0000 C.ar    1  UNL1       -0.0191
     10 C           6.0010   -2.0600    0.0000 C.3     1  UNL1       -0.0397
     11 C           4.2690    0.9400    0.0000 C.2     1  UNL1        0.3404
     12 H           5.6720   -0.2500    0.0000 H       1  UNL1        0.0629
     13 H           4.2690   -2.6800    0.0000 H       1  UNL1        0.0621
     14 H           2.8660   -1.8700    0.0000 H       1  UNL1        0.0654
     15 H           5.6910   -2.5969    0.0000 H       1  UNL1        0.0278
     16 H           6.5380   -2.3700    0.0000 H       1  UNL1        0.0278
     17 H           6.3110   -1.5231    0.0000 H       1  UNL1        0.0278
     18 H           2.0000   -0.3700    0.0000 H       1  UNL1        0.2922
     19 H           5.1350    2.0600    0.0000 H       1  UNL1        0.2954
@<TRIPOS>BOND
     1     1     7    1
     2     1    18    1
     3     2    11    1
     4     2    19    1
     5     3    11    2
     6     4     6   ar
     7     4     8   ar
     8     4    10    1
     9     5     6   ar
    10     5     7   ar
    11     5    11    1
    12     6    12    1
    13     7     9   ar
    14     8     9   ar
    15     8    13    1
    16     9    14    1
    17    10    15    1
    18    10    16    1
    19    10    17    1
