@<TRIPOS>MOLECULE
IMPHY016416
 25 25 0 0 0
SMALL
GASTEIGER

@<TRIPOS>ATOM
      1 O           2.8660   -2.8450    0.0000 O.3     1  UNL1       -0.5068
      2 C           3.7320    1.6550    0.0000 C.3     1  UNL1       -0.0493
      3 C           2.8660    1.1550    0.0000 C.3     1  UNL1       -0.0277
      4 C           3.7320    2.6550    0.0000 C.3     1  UNL1       -0.0556
      5 C           2.8660    0.1550    0.0000 C.ar    1  UNL1       -0.0471
      6 C           4.5981    3.1550    0.0000 C.3     1  UNL1       -0.0653
      7 C           3.7320   -0.3450    0.0000 C.ar    1  UNL1       -0.0551
      8 C           2.0000   -0.3450    0.0000 C.ar    1  UNL1       -0.0551
      9 C           3.7320   -1.3450    0.0000 C.ar    1  UNL1       -0.0199
     10 C           2.0000   -1.3450    0.0000 C.ar    1  UNL1       -0.0199
     11 C           2.8660   -1.8450    0.0000 C.ar    1  UNL1        0.1169
     12 H           3.9441    1.0724    0.0000 H       1  UNL1        0.0268
     13 H           4.3426    1.7627    0.0000 H       1  UNL1        0.0268
     14 H           2.6540    1.7376    0.0000 H       1  UNL1        0.0313
     15 H           2.2554    1.0473    0.0000 H       1  UNL1        0.0313
     16 H           3.5200    3.2376    0.0000 H       1  UNL1        0.0263
     17 H           3.1215    2.5473    0.0000 H       1  UNL1        0.0263
     18 H           4.9081    2.6181    0.0000 H       1  UNL1        0.0230
     19 H           5.1350    3.4650    0.0000 H       1  UNL1        0.0230
     20 H           4.2881    3.6919    0.0000 H       1  UNL1        0.0230
     21 H           4.2690   -0.0350    0.0000 H       1  UNL1        0.0621
     22 H           1.4631   -0.0350    0.0000 H       1  UNL1        0.0621
     23 H           4.2690   -1.6550    0.0000 H       1  UNL1        0.0654
     24 H           1.4631   -1.6550    0.0000 H       1  UNL1        0.0654
     25 H           2.3291   -3.1550    0.0000 H       1  UNL1        0.2921
@<TRIPOS>BOND
     1     1    11    1
     2     1    25    1
     3     2     3    1
     4     2     4    1
     5     2    12    1
     6     2    13    1
     7     3     5    1
     8     3    14    1
     9     3    15    1
    10     4     6    1
    11     4    16    1
    12     4    17    1
    13     5     7   ar
    14     5     8   ar
    15     6    18    1
    16     6    19    1
    17     6    20    1
    18     7     9   ar
    19     7    21    1
    20     8    10   ar
    21     8    22    1
    22     9    11   ar
    23     9    23    1
    24    10    11   ar
    25    10    24    1
