@<TRIPOS>MOLECULE
IMPHY007958
 51 52 0 0 0
SMALL
GASTEIGER

@<TRIPOS>ATOM
      1 O           3.7320   -0.6550    0.0000 O.3     1  UNL1       -0.4943
      2 O           5.4641   -3.6550    0.0000 O.3     1  UNL1       -0.4946
      3 O           7.1962   -0.6550    0.0000 O.3     1  UNL1       -0.5062
      4 O           7.1962    0.3450    0.0000 O.2     1  UNL1       -0.2916
      5 O           8.0622    1.8450    0.0000 O.3     1  UNL1       -0.5059
      6 O           6.3301    4.8450    0.0000 O.3     1  UNL1       -0.5066
      7 C           4.5981   -2.1550    0.0000 C.ar    1  UNL1        0.0400
      8 C           5.4641   -0.6550    0.0000 C.ar    1  UNL1        0.0435
      9 C           4.5981   -1.1550    0.0000 C.ar    1  UNL1        0.1341
     10 C           5.4641    0.3450    0.0000 C.3     1  UNL1        0.0427
     11 C           3.7320   -2.6550    0.0000 C.3     1  UNL1       -0.0023
     12 C           5.4641   -2.6550    0.0000 C.ar    1  UNL1        0.1305
     13 C           6.3301   -1.1550    0.0000 C.ar    1  UNL1        0.1274
     14 C           6.3301   -2.1550    0.0000 C.ar    1  UNL1        0.0223
     15 C           6.3301    0.8450    0.0000 C.2     1  UNL1        0.1712
     16 C           3.7320   -3.6550    0.0000 C.2     1  UNL1       -0.0807
     17 C           6.3301    1.8450    0.0000 C.ar    1  UNL1        0.0593
     18 C           2.8660   -4.1550    0.0000 C.2     1  UNL1       -0.0793
     19 C           7.1962    2.3450    0.0000 C.ar    1  UNL1        0.1308
     20 C           5.4641    2.3450    0.0000 C.ar    1  UNL1       -0.0443
     21 C           2.8660   -1.1550    0.0000 C.3     1  UNL1        0.0788
     22 C           2.8660   -5.1550    0.0000 C.3     1  UNL1       -0.0440
     23 C           2.0000   -3.6550    0.0000 C.3     1  UNL1       -0.0440
     24 C           7.1962    3.3450    0.0000 C.ar    1  UNL1        0.0220
     25 C           6.3301   -4.1550    0.0000 C.3     1  UNL1        0.0788
     26 C           5.4641    3.3450    0.0000 C.ar    1  UNL1       -0.0193
     27 C           6.3301    3.8450    0.0000 C.ar    1  UNL1        0.1204
     28 H           5.2520    0.9276    0.0000 H       1  UNL1        0.0396
     29 H           4.8535    0.2373    0.0000 H       1  UNL1        0.0396
     30 H           3.5200   -2.0724    0.0000 H       1  UNL1        0.0358
     31 H           3.1215   -2.7627    0.0000 H       1  UNL1        0.0358
     32 H           6.8671   -2.4650    0.0000 H       1  UNL1        0.0691
     33 H           4.2690   -3.9650    0.0000 H       1  UNL1        0.0575
     34 H           4.9272    2.0350    0.0000 H       1  UNL1        0.0627
     35 H           7.7331   -0.9650    0.0000 H       1  UNL1        0.2921
     36 H           2.5560   -0.6181    0.0000 H       1  UNL1        0.0660
     37 H           2.3291   -1.4650    0.0000 H       1  UNL1        0.0660
     38 H           3.1760   -1.6919    0.0000 H       1  UNL1        0.0660
     39 H           2.2460   -5.1550    0.0000 H       1  UNL1        0.0274
     40 H           2.3100   -3.1181    0.0000 H       1  UNL1        0.0274
     41 H           1.4631   -3.3450    0.0000 H       1  UNL1        0.0274
     42 H           1.6900   -4.1919    0.0000 H       1  UNL1        0.0274
     43 H           2.8660   -5.7750    0.0000 H       1  UNL1        0.0274
     44 H           3.4860   -5.1550    0.0000 H       1  UNL1        0.0274
     45 H           7.7331    3.6550    0.0000 H       1  UNL1        0.0691
     46 H           6.0201   -4.6919    0.0000 H       1  UNL1        0.0660
     47 H           6.8671   -4.4650    0.0000 H       1  UNL1        0.0660
     48 H           6.6401   -3.6181    0.0000 H       1  UNL1        0.0660
     49 H           4.9272    3.6550    0.0000 H       1  UNL1        0.0654
     50 H           8.5991    2.1550    0.0000 H       1  UNL1        0.2922
     51 H           5.7932    5.1550    0.0000 H       1  UNL1        0.2921
@<TRIPOS>BOND
     1     1     9    1
     2     1    21    1
     3     2    12    1
     4     2    25    1
     5     3    13    1
     6     3    35    1
     7     4    15    2
     8     5    19    1
     9     5    50    1
    10     6    27    1
    11     6    51    1
    12     7     9   ar
    13     7    11    1
    14     7    12   ar
    15     8     9   ar
    16     8    10    1
    17     8    13   ar
    18    10    15    1
    19    10    28    1
    20    10    29    1
    21    11    16    1
    22    11    30    1
    23    11    31    1
    24    12    14   ar
    25    13    14   ar
    26    14    32    1
    27    15    17    1
    28    16    18    2
    29    16    33    1
    30    17    19   ar
    31    17    20   ar
    32    18    22    1
    33    18    23    1
    34    19    24   ar
    35    20    26   ar
    36    20    34    1
    37    21    36    1
    38    21    37    1
    39    21    38    1
    40    22    39    1
    41    22    43    1
    42    22    44    1
    43    23    40    1
    44    23    41    1
    45    23    42    1
    46    24    27   ar
    47    24    45    1
    48    25    46    1
    49    25    47    1
    50    25    48    1
    51    26    27   ar
    52    26    49    1
