@<TRIPOS>MOLECULE
IMPHY016486
 29 30 0 0 0
SMALL
GASTEIGER

@<TRIPOS>ATOM
      1 C           3.3566    0.4841    0.0000 C.3     1  UNL1       -0.0129
      2 C           4.2576    0.0502    0.0000 C.3     1  UNL1       -0.0129
      3 C           3.4311   -0.5136    0.0000 C.2     1  UNL1       -0.0635
      4 C           3.1341    1.4590    0.0000 C.3     1  UNL1       -0.0459
      5 C           5.1585    0.4841    0.0000 C.3     1  UNL1       -0.0459
      6 C           3.7576    2.2408    0.0000 C.3     1  UNL1       -0.0525
      7 C           5.3810    1.4590    0.0000 C.3     1  UNL1       -0.0525
      8 C           4.7576    2.2408    0.0000 C.3     1  UNL1       -0.0530
      9 C           2.9972   -1.4146    0.0000 C.2     1  UNL1       -0.0759
     10 C           2.0000   -1.4893    0.0000 C.3     1  UNL1       -0.0438
     11 C           3.5605   -2.2408    0.0000 C.3     1  UNL1       -0.0438
     12 H           2.7435    0.3917    0.0000 H       1  UNL1        0.0352
     13 H           4.5676   -0.4867    0.0000 H       1  UNL1        0.0352
     14 H           2.7475    1.9437    0.0000 H       1  UNL1        0.0271
     15 H           2.5755    1.1900    0.0000 H       1  UNL1        0.0271
     16 H           5.2965   -0.1204    0.0000 H       1  UNL1        0.0271
     17 H           5.7785    0.4841    0.0000 H       1  UNL1        0.0271
     18 H           3.8955    2.8453    0.0000 H       1  UNL1        0.0265
     19 H           3.1990    2.5098    0.0000 H       1  UNL1        0.0265
     20 H           5.9396    1.1900    0.0000 H       1  UNL1        0.0265
     21 H           5.7676    1.9437    0.0000 H       1  UNL1        0.0265
     22 H           5.3162    2.5098    0.0000 H       1  UNL1        0.0265
     23 H           4.6196    2.8453    0.0000 H       1  UNL1        0.0265
     24 H           1.9537   -0.8710    0.0000 H       1  UNL1        0.0274
     25 H           1.3817   -1.5356    0.0000 H       1  UNL1        0.0274
     26 H           2.0463   -2.1076    0.0000 H       1  UNL1        0.0274
     27 H           3.0483   -2.5901    0.0000 H       1  UNL1        0.0274
     28 H           3.9098   -2.7531    0.0000 H       1  UNL1        0.0274
     29 H           4.0728   -1.8916    0.0000 H       1  UNL1        0.0274
@<TRIPOS>BOND
     1     1     2    1
     2     1     3    1
     3     1     4    1
     4     1    12    1
     5     2     3    1
     6     2     5    1
     7     2    13    1
     8     3     9    2
     9     4     6    1
    10     4    14    1
    11     4    15    1
    12     5     7    1
    13     5    16    1
    14     5    17    1
    15     6     8    1
    16     6    18    1
    17     6    19    1
    18     7     8    1
    19     7    20    1
    20     7    21    1
    21     8    22    1
    22     8    23    1
    23     9    10    1
    24     9    11    1
    25    10    24    1
    26    10    25    1
    27    10    26    1
    28    11    27    1
    29    11    28    1
    30    11    29    1
