@<TRIPOS>MOLECULE
IMPHY000273
 56 58 0 0 0
SMALL
GASTEIGER

@<TRIPOS>ATOM
      1 O           2.8660    1.0000    0.0000 O.3     1  UNL1       -0.3911
      2 O           4.5981   -2.0000    0.0000 O.2     1  UNL1       -0.2970
      3 C           3.7320   -0.5000    0.0000 C.3     1  UNL1        0.0474
      4 C           3.7320    0.5000    0.0000 C.3     1  UNL1        0.0653
      5 C           2.8660   -1.0000    0.0000 C.3     1  UNL1       -0.0158
      6 C           4.5981    1.0000    0.0000 C.3     1  UNL1       -0.0222
      7 C           4.5981   -1.0000    0.0000 C.2     1  UNL1        0.1395
      8 C           4.5981    2.0000    0.0000 C.3     1  UNL1       -0.0253
      9 C           5.4641   -0.5000    0.0000 C.3     1  UNL1        0.0102
     10 C           2.8660   -2.0000    0.0000 C.ar    1  UNL1       -0.0466
     11 C           6.3301   -1.0000    0.0000 C.3     1  UNL1       -0.0210
     12 C           5.4641    2.5000    0.0000 C.ar    1  UNL1       -0.0473
     13 C           2.0000   -2.5000    0.0000 C.ar    1  UNL1       -0.0586
     14 C           3.7320   -2.5000    0.0000 C.ar    1  UNL1       -0.0586
     15 C           7.1962   -0.5000    0.0000 C.ar    1  UNL1       -0.0470
     16 C           6.3301    2.0000    0.0000 C.ar    1  UNL1       -0.0586
     17 C           5.4641    3.5000    0.0000 C.ar    1  UNL1       -0.0586
     18 C           2.0000   -3.5000    0.0000 C.ar    1  UNL1       -0.0615
     19 C           3.7320   -3.5000    0.0000 C.ar    1  UNL1       -0.0615
     20 C           8.0622   -1.0000    0.0000 C.ar    1  UNL1       -0.0586
     21 C           7.1962    0.5000    0.0000 C.ar    1  UNL1       -0.0586
     22 C           2.8660   -4.0000    0.0000 C.ar    1  UNL1       -0.0617
     23 C           7.1962    2.5000    0.0000 C.ar    1  UNL1       -0.0615
     24 C           6.3301    4.0000    0.0000 C.ar    1  UNL1       -0.0615
     25 C           7.1962    3.5000    0.0000 C.ar    1  UNL1       -0.0617
     26 C           8.9282   -0.5000    0.0000 C.ar    1  UNL1       -0.0615
     27 C           8.0622    1.0000    0.0000 C.ar    1  UNL1       -0.0615
     28 C           8.9282    0.5000    0.0000 C.ar    1  UNL1       -0.0617
     29 H           3.7320   -1.1200    0.0000 H       1  UNL1        0.0406
     30 H           3.7320    1.1200    0.0000 H       1  UNL1        0.0600
     31 H           2.6540   -0.4174    0.0000 H       1  UNL1        0.0321
     32 H           2.2554   -1.1077    0.0000 H       1  UNL1        0.0321
     33 H           4.8101    0.4174    0.0000 H       1  UNL1        0.0293
     34 H           5.2087    1.1077    0.0000 H       1  UNL1        0.0293
     35 H           4.3860    2.5826    0.0000 H       1  UNL1        0.0314
     36 H           3.9875    1.8923    0.0000 H       1  UNL1        0.0314
     37 H           5.8626   -0.0251    0.0000 H       1  UNL1        0.0345
     38 H           5.0656   -0.0251    0.0000 H       1  UNL1        0.0345
     39 H           5.9316   -1.4750    0.0000 H       1  UNL1        0.0317
     40 H           6.7287   -1.4750    0.0000 H       1  UNL1        0.0317
     41 H           2.8660    1.6200    0.0000 H       1  UNL1        0.2098
     42 H           1.4631   -2.1900    0.0000 H       1  UNL1        0.0620
     43 H           4.2690   -2.1900    0.0000 H       1  UNL1        0.0620
     44 H           6.3301    1.3800    0.0000 H       1  UNL1        0.0620
     45 H           4.9272    3.8100    0.0000 H       1  UNL1        0.0620
     46 H           1.4631   -3.8100    0.0000 H       1  UNL1        0.0618
     47 H           4.2690   -3.8100    0.0000 H       1  UNL1        0.0618
     48 H           8.0622   -1.6200    0.0000 H       1  UNL1        0.0620
     49 H           6.6592    0.8100    0.0000 H       1  UNL1        0.0620
     50 H           2.8660   -4.6200    0.0000 H       1  UNL1        0.0618
     51 H           7.7331    2.1900    0.0000 H       1  UNL1        0.0618
     52 H           6.3301    4.6200    0.0000 H       1  UNL1        0.0618
     53 H           7.7331    3.8100    0.0000 H       1  UNL1        0.0618
     54 H           9.4651   -0.8100    0.0000 H       1  UNL1        0.0618
     55 H           8.0622    1.6200    0.0000 H       1  UNL1        0.0618
     56 H           9.4651    0.8100    0.0000 H       1  UNL1        0.0618
@<TRIPOS>BOND
     1     1     4    1
     2     1    41    1
     3     2     7    2
     4     3     4    1
     5     3     5    1
     6     3     7    1
     7     3    29    1
     8     4     6    1
     9     4    30    1
    10     5    10    1
    11     5    31    1
    12     5    32    1
    13     6     8    1
    14     6    33    1
    15     6    34    1
    16     7     9    1
    17     8    12    1
    18     8    35    1
    19     8    36    1
    20     9    11    1
    21     9    37    1
    22     9    38    1
    23    10    13   ar
    24    10    14   ar
    25    11    15    1
    26    11    39    1
    27    11    40    1
    28    12    16   ar
    29    12    17   ar
    30    13    18   ar
    31    13    42    1
    32    14    19   ar
    33    14    43    1
    34    15    20   ar
    35    15    21   ar
    36    16    23   ar
    37    16    44    1
    38    17    24   ar
    39    17    45    1
    40    18    22   ar
    41    18    46    1
    42    19    22   ar
    43    19    47    1
    44    20    26   ar
    45    20    48    1
    46    21    27   ar
    47    21    49    1
    48    22    50    1
    49    23    25   ar
    50    23    51    1
    51    24    25   ar
    52    24    52    1
    53    25    53    1
    54    26    28   ar
    55    26    54    1
    56    27    28   ar
    57    27    55    1
    58    28    56    1
