@<TRIPOS>MOLECULE
IMPHY014928
 65 68 0 0 0
SMALL
GASTEIGER

@<TRIPOS>ATOM
      1 O           5.1350   -1.5169    0.0000 O.3     1  UNL1       -0.3313
      2 O           6.8671   -1.5169    0.0000 O.3     1  UNL1       -0.4571
      3 O           5.1350   -4.5169    0.0000 O.3     1  UNL1       -0.3864
      4 O           3.4030   -3.5169    0.0000 O.3     1  UNL1       -0.3865
      5 O           6.8671   -3.5169    0.0000 O.3     1  UNL1       -0.3829
      6 O           2.5369   -2.0169    0.0000 O.3     1  UNL1       -0.3924
      7 O           5.1350   -0.5169    0.0000 O.3     1  UNL1       -0.5033
      8 O           8.0650    4.2900    0.0000 O.3     1  UNL1       -0.4793
      9 O           9.5650    3.4240    0.0000 O.2     1  UNL1       -0.2489
     10 O          14.3877    3.0582    0.0000 O.3     1  UNL1       -0.4791
     11 OXT        13.0985    4.2149    0.0000 O.2     1  UNL1       -0.2486
     12 O          13.6733   -0.3315    0.0000 O.3     1  UNL1       -0.4761
     13 OXT        12.0269   -0.8695    0.0000 O.2     1  UNL1       -0.2434
     14 N           8.4701    1.6502    0.0000 N.pl3   1  UNL1       -0.2920
     15 N          13.0520    1.5696    0.0000 N.2     1  UNL1       -0.2620
     16 C           5.1350   -3.5169    0.0000 C.3     1  UNL1        0.1152
     17 C           4.2690   -3.0169    0.0000 C.3     1  UNL1        0.1120
     18 C           6.0010   -3.0169    0.0000 C.3     1  UNL1        0.1454
     19 C           4.2690   -2.0169    0.0000 C.3     1  UNL1        0.1140
     20 C           6.0010   -2.0169    0.0000 C.3     1  UNL1        0.2310
     21 C           8.0650    2.5579    0.0000 C.3     1  UNL1        0.1285
     22 C           7.0763    2.4549    0.0000 C.3     1  UNL1        0.0035
     23 C           7.7331    0.9831    0.0000 C.ar    1  UNL1        0.0412
     24 C           6.8671    1.4831    0.0000 C.ar    1  UNL1       -0.0200
     25 C           3.4030   -1.5169    0.0000 C.3     1  UNL1        0.0731
     26 C           6.8671   -0.5169    0.0000 C.ar    1  UNL1        0.1669
     27 C           7.7331   -0.0169    0.0000 C.ar    1  UNL1        0.0055
     28 C           6.0010    0.9831    0.0000 C.ar    1  UNL1       -0.0115
     29 C           6.0010   -0.0169    0.0000 C.ar    1  UNL1        0.1589
     30 C           9.4486    1.4439    0.0000 C.2     1  UNL1       -0.0021
     31 C           8.5650    3.4240    0.0000 C.2     1  UNL1        0.3260
     32 C          10.1165    2.1882    0.0000 C.2     1  UNL1       -0.0444
     33 C          11.0950    1.9820    0.0000 C.2     1  UNL1       -0.0414
     34 C          11.7628    2.7263    0.0000 C.3     1  UNL1        0.0053
     35 CA         12.7413    2.5201    0.0000 C.3     1  UNL1        0.1519
     36 C          11.4056    1.0315    0.0000 C.2     1  UNL1       -0.0264
     37 CA         12.3841    0.8253    0.0000 C.2     1  UNL1        0.1433
     38 C          13.4092    3.2644    0.0000 C.2     1  UNL1        0.3298
     39 C          12.6948   -0.1252    0.0000 C.2     1  UNL1        0.3549
     40 H           4.5981   -3.8269    0.0000 H       1  UNL1        0.0648
     41 H           4.2690   -3.6369    0.0000 H       1  UNL1        0.0647
     42 H           6.0010   -3.6369    0.0000 H       1  UNL1        0.0683
     43 H           4.2690   -1.3969    0.0000 H       1  UNL1        0.0647
     44 H           6.0010   -1.3969    0.0000 H       1  UNL1        0.1084
     45 H           8.6842    2.5258    0.0000 H       1  UNL1        0.0622
     46 H           7.0772    3.0749    0.0000 H       1  UNL1        0.0337
     47 H           6.4598    2.5209    0.0000 H       1  UNL1        0.0337
     48 H           3.8015   -1.0420    0.0000 H       1  UNL1        0.0584
     49 H           3.0044   -1.0420    0.0000 H       1  UNL1        0.0584
     50 H           8.2700   -0.3269    0.0000 H       1  UNL1        0.0674
     51 H           5.4641    1.2931    0.0000 H       1  UNL1        0.0658
     52 H           4.5981   -4.8269    0.0000 H       1  UNL1        0.2100
     53 H           3.4030   -4.1369    0.0000 H       1  UNL1        0.2100
     54 H           6.8671   -4.1369    0.0000 H       1  UNL1        0.2102
     55 H           9.6412    0.8546    0.0000 H       1  UNL1        0.0784
     56 H           2.0000   -1.7069    0.0000 H       1  UNL1        0.2095
     57 H           9.9238    2.7776    0.0000 H       1  UNL1        0.0633
     58 H          11.9941    3.3016    0.0000 H       1  UNL1        0.0339
     59 H          11.2364    3.0540    0.0000 H       1  UNL1        0.0339
     60 H           4.5981   -0.2069    0.0000 H       1  UNL1        0.2923
     61 HA         13.3480    2.3923    0.0000 H       1  UNL1        0.0664
     62 H           8.3750    4.8269    0.0000 H       1  UNL1        0.2951
     63 H          10.9916    0.5700    0.0000 H       1  UNL1        0.0644
     64 H          14.8017    3.5196    0.0000 H       1  UNL1        0.2951
     65 H          13.8659   -0.9208    0.0000 H       1  UNL1        0.2955
@<TRIPOS>BOND
     1     1    19    1
     2     1    20    1
     3    20     2    1
     4     2    26    1
     5    16     3    1
     6     3    52    1
     7    17     4    1
     8     4    53    1
     9    18     5    1
    10     5    54    1
    11     6    25    1
    12     6    56    1
    13     7    29    1
    14     7    60    1
    15     8    31    1
    16     8    62    1
    17     9    31    2
    18    10    38    1
    19    10    64    1
    20    11    38    2
    21    12    39    1
    22    12    65    1
    23    13    39    2
    24    14    21    1
    25    14    23    1
    26    14    30    1
    27    15    35    1
    28    15    37    2
    29    16    17    1
    30    16    18    1
    31    16    40    1
    32    17    19    1
    33    17    41    1
    34    18    20    1
    35    18    42    1
    36    19    25    1
    37    19    43    1
    38    20    44    1
    39    21    22    1
    40    21    31    1
    41    21    45    1
    42    22    24    1
    43    22    46    1
    44    22    47    1
    45    23    24   ar
    46    23    27   ar
    47    24    28   ar
    48    25    48    1
    49    25    49    1
    50    26    27   ar
    51    26    29   ar
    52    27    50    1
    53    28    29   ar
    54    28    51    1
    55    30    32    2
    56    30    55    1
    57    32    33    1
    58    32    57    1
    59    33    34    1
    60    33    36    2
    61    34    35    1
    62    34    58    1
    63    34    59    1
    64    35    38    1
    65    35    61    1
    66    36    37    1
    67    36    63    1
    68    37    39    1
