@<TRIPOS>MOLECULE
IMPHY012429
 38 40 0 0 0
SMALL
GASTEIGER

@<TRIPOS>ATOM
      1 N           7.0547   -0.8488    0.0000 N.3     1  UNL1       -0.2936
      2 N           4.5274    0.2754    0.0000 N.ar    1  UNL1       -0.3562
      3 C           6.3518   -0.0801    0.0000 C.3     1  UNL1        0.0695
      4 C           5.3364   -0.3124    0.0000 C.ar    1  UNL1        0.0415
      5 C           5.0274   -1.2635    0.0000 C.ar    1  UNL1       -0.0161
      6 C           5.7123   -2.0482    0.0000 C.3     1  UNL1       -0.0125
      7 C           6.7328   -1.8395    0.0000 C.3     1  UNL1        0.0036
      8 C           4.0274   -1.2635    0.0000 C.ar    1  UNL1        0.0032
      9 C           3.7183   -0.3124    0.0000 C.ar    1  UNL1        0.0470
     10 C           6.6498    0.8744    0.0000 C.2     1  UNL1       -0.0625
     11 C           8.0321   -0.6372    0.0000 C.3     1  UNL1       -0.0118
     12 C           3.3424   -2.0482    0.0000 C.ar    1  UNL1       -0.0523
     13 C           2.7029   -0.0801    0.0000 C.ar    1  UNL1       -0.0378
     14 C           7.6255    1.0936    0.0000 C.2     1  UNL1       -0.0778
     15 C           2.3219   -1.8395    0.0000 C.ar    1  UNL1       -0.0611
     16 C           2.0000   -0.8488    0.0000 C.ar    1  UNL1       -0.0598
     17 C           7.9235    2.0482    0.0000 C.3     1  UNL1       -0.0440
     18 C           8.3031    0.3583    0.0000 C.3     1  UNL1       -0.0440
     19 H           6.9570    0.0546    0.0000 H       1  UNL1        0.0571
     20 H           5.1824   -2.3700    0.0000 H       1  UNL1        0.0326
     21 H           5.9387   -2.6254    0.0000 H       1  UNL1        0.0326
     22 H           6.7513   -2.4592    0.0000 H       1  UNL1        0.0430
     23 H           7.3466   -1.9274    0.0000 H       1  UNL1        0.0430
     24 H           4.5274    0.8954    0.0000 H       1  UNL1        0.1657
     25 H           6.2296    1.3303    0.0000 H       1  UNL1        0.0591
     26 H           8.1633   -1.2431    0.0000 H       1  UNL1        0.0391
     27 H           8.6380   -0.5059    0.0000 H       1  UNL1        0.0391
     28 H           7.9008   -0.0312    0.0000 H       1  UNL1        0.0391
     29 H           3.5408   -2.6356    0.0000 H       1  UNL1        0.0624
     30 H           2.5182    0.5117    0.0000 H       1  UNL1        0.0638
     31 H           1.9088   -2.3018    0.0000 H       1  UNL1        0.0618
     32 H           1.3940   -0.7176    0.0000 H       1  UNL1        0.0618
     33 H           8.5153    1.8634    0.0000 H       1  UNL1        0.0274
     34 H           8.1082    2.6400    0.0000 H       1  UNL1        0.0274
     35 H           7.3316    2.2330    0.0000 H       1  UNL1        0.0274
     36 H           7.8472   -0.0619    0.0000 H       1  UNL1        0.0274
     37 H           8.7233   -0.0977    0.0000 H       1  UNL1        0.0274
     38 H           8.7591    0.7784    0.0000 H       1  UNL1        0.0274
@<TRIPOS>BOND
     1     1     3    1
     2     1     7    1
     3     1    11    1
     4     2     4   ar
     5     2     9   ar
     6     2    24    1
     7     3     4    1
     8     3    10    1
     9     3    19    1
    10     4     5   ar
    11     5     6    1
    12     5     8   ar
    13     6     7    1
    14     6    20    1
    15     6    21    1
    16     7    22    1
    17     7    23    1
    18     8     9   ar
    19     8    12   ar
    20     9    13   ar
    21    10    14    2
    22    10    25    1
    23    11    26    1
    24    11    27    1
    25    11    28    1
    26    12    15   ar
    27    12    29    1
    28    13    16   ar
    29    13    30    1
    30    14    17    1
    31    14    18    1
    32    15    16   ar
    33    15    31    1
    34    16    32    1
    35    17    33    1
    36    17    34    1
    37    17    35    1
    38    18    36    1
    39    18    37    1
    40    18    38    1
