@<TRIPOS>MOLECULE
IMPHY014885
 42 43 0 0 0
SMALL
GASTEIGER

@<TRIPOS>ATOM
      1 O           3.7320   -1.7500    0.0000 O.3     1  UNL1       -0.3877
      2 C           3.7320   -0.7500    0.0000 C.3     1  UNL1        0.0754
      3 C           3.7320    0.2500    0.0000 C.3     1  UNL1        0.0095
      4 C           2.8660    0.7500    0.0000 C.3     1  UNL1       -0.0298
      5 C           2.8660   -1.2500    0.0000 C.3     1  UNL1       -0.0144
      6 C           2.0000    0.2500    0.0000 C.3     1  UNL1       -0.0490
      7 C           2.0000   -0.7500    0.0000 C.3     1  UNL1       -0.0476
      8 C           4.6260   -1.2847    0.0000 C.3     1  UNL1       -0.0195
      9 C           2.8660    1.7500    0.0000 C.3     1  UNL1       -0.0433
     10 C           4.6260    0.7847    0.0000 C.2     1  UNL1       -0.0789
     11 C           5.5321   -0.7708    0.0000 C.3     1  UNL1       -0.0294
     12 C           2.8660   -2.2500    0.0000 C.3     1  UNL1       -0.0598
     13 C           5.5321    0.2708    0.0000 C.2     1  UNL1       -0.0761
     14 C           2.0000    2.2500    0.0000 C.3     1  UNL1       -0.0624
     15 C           3.7320    2.2500    0.0000 C.3     1  UNL1       -0.0624
     16 C           6.3961    0.7742    0.0000 C.3     1  UNL1       -0.0438
     17 H           3.7273    0.8700    0.0000 H       1  UNL1        0.0374
     18 H           2.3291    1.0600    0.0000 H       1  UNL1        0.0310
     19 H           2.3291   -1.5600    0.0000 H       1  UNL1        0.0326
     20 H           1.7880    0.8326    0.0000 H       1  UNL1        0.0268
     21 H           1.3894    0.1423    0.0000 H       1  UNL1        0.0268
     22 H           1.3894   -0.6423    0.0000 H       1  UNL1        0.0269
     23 H           1.7880   -1.3326    0.0000 H       1  UNL1        0.0269
     24 H           4.2214   -1.7544    0.0000 H       1  UNL1        0.0296
     25 H           5.0196   -1.7637    0.0000 H       1  UNL1        0.0296
     26 H           2.8660    2.3700    0.0000 H       1  UNL1        0.0298
     27 H           4.6188    1.4046    0.0000 H       1  UNL1        0.0575
     28 H           5.7411   -1.3545    0.0000 H       1  UNL1        0.0311
     29 H           6.1429   -0.6647    0.0000 H       1  UNL1        0.0311
     30 H           2.2460   -2.2500    0.0000 H       1  UNL1        0.0233
     31 H           2.8660   -2.8700    0.0000 H       1  UNL1        0.0233
     32 H           3.4860   -2.2500    0.0000 H       1  UNL1        0.0233
     33 H           4.2690   -2.0600    0.0000 H       1  UNL1        0.2102
     34 H           2.3100    2.7869    0.0000 H       1  UNL1        0.0232
     35 H           1.4631    2.5600    0.0000 H       1  UNL1        0.0232
     36 H           1.6900    1.7131    0.0000 H       1  UNL1        0.0232
     37 H           4.0420    1.7131    0.0000 H       1  UNL1        0.0232
     38 H           4.2690    2.5600    0.0000 H       1  UNL1        0.0232
     39 H           3.4220    2.7869    0.0000 H       1  UNL1        0.0232
     40 H           6.7082    0.2384    0.0000 H       1  UNL1        0.0274
     41 H           6.9319    1.0862    0.0000 H       1  UNL1        0.0274
     42 H           6.0841    1.3099    0.0000 H       1  UNL1        0.0274
@<TRIPOS>BOND
     1     1     2    1
     2     1    33    1
     3     2     3    1
     4     2     5    1
     5     2     8    1
     6     3     4    1
     7     3    10    1
     8     3    17    1
     9     4     6    1
    10     4     9    1
    11     4    18    1
    12     5     7    1
    13     5    12    1
    14     5    19    1
    15     6     7    1
    16     6    20    1
    17     6    21    1
    18     7    22    1
    19     7    23    1
    20     8    11    1
    21     8    24    1
    22     8    25    1
    23     9    14    1
    24     9    15    1
    25     9    26    1
    26    10    13    2
    27    10    27    1
    28    11    13    1
    29    11    28    1
    30    11    29    1
    31    12    30    1
    32    12    31    1
    33    12    32    1
    34    13    16    1
    35    14    34    1
    36    14    35    1
    37    14    36    1
    38    15    37    1
    39    15    38    1
    40    15    39    1
    41    16    40    1
    42    16    41    1
    43    16    42    1
