@<TRIPOS>MOLECULE
IMPHY006284
 50 51 0 0 0
SMALL
GASTEIGER

@<TRIPOS>ATOM
      1 O           2.8660    0.7500    0.0000 O.3     1  UNL1       -0.5055
      2 O           6.4489    0.0764    0.0000 O.3     1  UNL1       -0.5063
      3 O           2.8660   -2.2500    0.0000 O.3     1  UNL1       -0.4770
      4 O           2.0000   -0.7500    0.0000 O.2     1  UNL1       -0.2450
      5 C           5.4641    2.2500    0.0000 C.3     1  UNL1       -0.0096
      6 C           4.5981    1.7500    0.0000 C.3     1  UNL1        0.0159
      7 C           5.4641    3.2500    0.0000 C.3     1  UNL1       -0.0420
      8 C           4.5981    3.7500    0.0000 C.3     1  UNL1       -0.0314
      9 C           3.7320    2.2500    0.0000 C.2     1  UNL1       -0.0768
     10 C           4.5981    0.7500    0.0000 C.ar    1  UNL1        0.0435
     11 C           3.7320    3.2500    0.0000 C.2     1  UNL1       -0.0759
     12 C           6.4489    2.4236    0.0000 C.2     1  UNL1       -0.0757
     13 C           3.7320    0.2500    0.0000 C.ar    1  UNL1        0.1383
     14 C           5.4641    0.2500    0.0000 C.ar    1  UNL1        0.1244
     15 C           2.8660    3.7500    0.0000 C.3     1  UNL1       -0.0438
     16 C           6.7909    3.3633    0.0000 C.3     1  UNL1       -0.0437
     17 C           3.7320   -0.7500    0.0000 C.ar    1  UNL1        0.1038
     18 C           4.5981   -1.2500    0.0000 C.ar    1  UNL1       -0.0264
     19 C           5.4641   -0.7500    0.0000 C.ar    1  UNL1       -0.0157
     20 C           7.0917    1.6576    0.0000 C.2     1  UNL1       -0.0994
     21 C           4.5981   -2.2500    0.0000 C.3     1  UNL1       -0.0269
     22 C           5.4641   -2.7500    0.0000 C.3     1  UNL1       -0.0519
     23 C           2.8660   -1.2500    0.0000 C.2     1  UNL1        0.3406
     24 C           5.4641   -3.7500    0.0000 C.3     1  UNL1       -0.0650
     25 H           5.6762    1.6674    0.0000 H       1  UNL1        0.0354
     26 H           5.3342    1.3250    0.0000 H       1  UNL1        0.0399
     27 H           6.0747    3.1423    0.0000 H       1  UNL1        0.0274
     28 H           5.6762    3.8326    0.0000 H       1  UNL1        0.0274
     29 H           4.9966    4.2250    0.0000 H       1  UNL1        0.0310
     30 H           4.1996    4.2250    0.0000 H       1  UNL1        0.0310
     31 H           3.1951    1.9400    0.0000 H       1  UNL1        0.0578
     32 H           3.1760    4.2869    0.0000 H       1  UNL1        0.0274
     33 H           2.3291    4.0600    0.0000 H       1  UNL1        0.0274
     34 H           2.5560    3.2131    0.0000 H       1  UNL1        0.0274
     35 H           7.3735    3.1513    0.0000 H       1  UNL1        0.0274
     36 H           7.0030    3.9460    0.0000 H       1  UNL1        0.0274
     37 H           6.2083    3.5754    0.0000 H       1  UNL1        0.0274
     38 H           6.0010   -1.0600    0.0000 H       1  UNL1        0.0657
     39 H           6.8796    1.0750    0.0000 H       1  UNL1        0.0534
     40 H           7.7023    1.7653    0.0000 H       1  UNL1        0.0534
     41 H           3.9875   -2.1423    0.0000 H       1  UNL1        0.0313
     42 H           4.3860   -2.8326    0.0000 H       1  UNL1        0.0313
     43 H           6.0747   -2.8577    0.0000 H       1  UNL1        0.0266
     44 H           5.6762   -2.1674    0.0000 H       1  UNL1        0.0266
     45 H           2.3291    0.4400    0.0000 H       1  UNL1        0.2922
     46 H           6.6610   -0.5063    0.0000 H       1  UNL1        0.2921
     47 H           4.8441   -3.7500    0.0000 H       1  UNL1        0.0230
     48 H           5.4641   -4.3700    0.0000 H       1  UNL1        0.0230
     49 H           6.0841   -3.7500    0.0000 H       1  UNL1        0.0230
     50 H           2.3291   -2.5600    0.0000 H       1  UNL1        0.2954
@<TRIPOS>BOND
     1     1    13    1
     2     1    45    1
     3     2    14    1
     4     2    46    1
     5     3    23    1
     6     3    50    1
     7     4    23    2
     8     5     6    1
     9     5     7    1
    10     5    12    1
    11     5    25    1
    12     6     9    1
    13     6    10    1
    14     6    26    1
    15     7     8    1
    16     7    27    1
    17     7    28    1
    18     8    11    1
    19     8    29    1
    20     8    30    1
    21     9    11    2
    22     9    31    1
    23    10    13   ar
    24    10    14   ar
    25    11    15    1
    26    12    16    1
    27    12    20    2
    28    13    17   ar
    29    14    19   ar
    30    15    32    1
    31    15    33    1
    32    15    34    1
    33    16    35    1
    34    16    36    1
    35    16    37    1
    36    17    18   ar
    37    17    23    1
    38    18    19   ar
    39    18    21    1
    40    19    38    1
    41    20    39    1
    42    20    40    1
    43    21    22    1
    44    21    41    1
    45    21    42    1
    46    22    24    1
    47    22    43    1
    48    22    44    1
    49    24    47    1
    50    24    48    1
    51    24    49    1
