@<TRIPOS>MOLECULE
IMPHY001275
 68 70 0 0 0
SMALL
GASTEIGER

@<TRIPOS>ATOM
      1 O           4.5981   -2.3100    0.0000 O.3     1  UNL1       -0.4572
      2 O           7.8479   -2.2280    0.0000 O.3     1  UNL1       -0.4802
      3 O           6.3380   -3.0766    0.0000 O.2     1  UNL1       -0.2504
      4 O           2.8660   -2.3100    0.0000 O.2     1  UNL1       -0.2450
      5 O           2.0000    5.1900    0.0000 O.3     1  UNL1       -0.3910
      6 C           5.4641    0.1900    0.0000 C.3     1  UNL1       -0.0184
      7 C           5.4641   -0.8100    0.0000 C.3     1  UNL1        0.0179
      8 C           6.3580   -1.3447    0.0000 C.3     1  UNL1        0.0715
      9 C           4.5981    0.6900    0.0000 C.3     1  UNL1       -0.0140
     10 C           6.3580    0.7247    0.0000 C.3     1  UNL1       -0.0466
     11 C           4.5981   -1.3100    0.0000 C.3     1  UNL1        0.1114
     12 C           7.2641   -0.8308    0.0000 C.3     1  UNL1       -0.0371
     13 C           7.2641    0.2108    0.0000 C.3     1  UNL1       -0.0515
     14 C           3.7320   -0.8100    0.0000 C.3     1  UNL1        0.0059
     15 C           5.4641    1.1900    0.0000 C.3     1  UNL1       -0.0586
     16 C           3.7320    0.1900    0.0000 C.2     1  UNL1       -0.0695
     17 C           4.5981    1.6900    0.0000 C.3     1  UNL1       -0.0423
     18 C           5.8481   -2.2048    0.0000 C.3     1  UNL1       -0.0490
     19 C           6.8480   -2.2164    0.0000 C.2     1  UNL1        0.3111
     20 C           3.7320    2.1900    0.0000 C.3     1  UNL1       -0.0314
     21 C           2.8660    0.6900    0.0000 C.2     1  UNL1       -0.0990
     22 C           3.7320    3.1900    0.0000 C.2     1  UNL1       -0.0744
     23 C           3.7320   -2.8100    0.0000 C.2     1  UNL1        0.3395
     24 C           4.5981    3.6900    0.0000 C.3     1  UNL1       -0.0437
     25 C           3.7320   -3.8100    0.0000 C.ar    1  UNL1        0.0590
     26 C           2.8660    3.6900    0.0000 C.2     1  UNL1       -0.0600
     27 C           2.8660    4.6900    0.0000 C.3     1  UNL1        0.0626
     28 C           2.8660   -4.3100    0.0000 C.ar    1  UNL1       -0.0478
     29 C           4.5981   -4.3100    0.0000 C.ar    1  UNL1       -0.0478
     30 C           2.8660   -5.3100    0.0000 C.ar    1  UNL1       -0.0610
     31 C           4.5981   -5.3100    0.0000 C.ar    1  UNL1       -0.0610
     32 C           3.7320   -5.8100    0.0000 C.ar    1  UNL1       -0.0617
     33 H           5.4576   -1.6600    0.0000 H       1  UNL1        0.0353
     34 H           4.0611    1.0000    0.0000 H       1  UNL1        0.0351
     35 H           6.7517    1.2037    0.0000 H       1  UNL1        0.0271
     36 H           5.9534    1.1944    0.0000 H       1  UNL1        0.0271
     37 H           4.0611   -1.6200    0.0000 H       1  UNL1        0.0740
     38 H           7.4732   -1.4145    0.0000 H       1  UNL1        0.0276
     39 H           7.8750   -0.7247    0.0000 H       1  UNL1        0.0276
     40 H           7.8750    0.1047    0.0000 H       1  UNL1        0.0266
     41 H           7.4732    0.7945    0.0000 H       1  UNL1        0.0266
     42 H           3.1215   -0.7023    0.0000 H       1  UNL1        0.0346
     43 H           3.5200   -1.3926    0.0000 H       1  UNL1        0.0346
     44 H           6.0841    1.1900    0.0000 H       1  UNL1        0.0235
     45 H           5.4641    1.8100    0.0000 H       1  UNL1        0.0235
     46 H           4.8441    1.1900    0.0000 H       1  UNL1        0.0235
     47 H           5.2087    1.5823    0.0000 H       1  UNL1        0.0274
     48 H           4.8101    2.2726    0.0000 H       1  UNL1        0.0274
     49 H           5.3148   -1.8887    0.0000 H       1  UNL1        0.0240
     50 H           5.5319   -2.7382    0.0000 H       1  UNL1        0.0240
     51 H           6.3814   -2.5210    0.0000 H       1  UNL1        0.0240
     52 H           3.1215    2.2977    0.0000 H       1  UNL1        0.0310
     53 H           3.5200    1.6074    0.0000 H       1  UNL1        0.0310
     54 H           2.8660    1.3100    0.0000 H       1  UNL1        0.0535
     55 H           2.3291    0.3800    0.0000 H       1  UNL1        0.0535
     56 H           8.1517   -2.7685    0.0000 H       1  UNL1        0.2951
     57 H           4.9081    3.1531    0.0000 H       1  UNL1        0.0274
     58 H           5.1350    4.0000    0.0000 H       1  UNL1        0.0274
     59 H           4.2881    4.2269    0.0000 H       1  UNL1        0.0274
     60 H           2.3291    3.3800    0.0000 H       1  UNL1        0.0594
     61 H           3.4766    4.5823    0.0000 H       1  UNL1        0.0601
     62 H           3.0781    5.2726    0.0000 H       1  UNL1        0.0601
     63 H           2.3291   -4.0000    0.0000 H       1  UNL1        0.0626
     64 H           5.1350   -4.0000    0.0000 H       1  UNL1        0.0626
     65 H           2.3291   -5.6200    0.0000 H       1  UNL1        0.0618
     66 H           5.1350   -5.6200    0.0000 H       1  UNL1        0.0618
     67 H           3.7320   -6.4300    0.0000 H       1  UNL1        0.0618
     68 H           2.0000    5.8100    0.0000 H       1  UNL1        0.2098
@<TRIPOS>BOND
     1    11     1    1
     2     1    23    1
     3     2    19    1
     4     2    56    1
     5     3    19    2
     6     4    23    2
     7     5    27    1
     8     5    68    1
     9     6     7    1
    10     6     9    1
    11     6    10    1
    12     6    15    1
    13     7     8    1
    14     7    11    1
    15     7    33    1
    16     8    12    1
    17     8    18    1
    18     8    19    1
    19     9    16    1
    20     9    17    1
    21     9    34    1
    22    10    13    1
    23    10    35    1
    24    10    36    1
    25    11    14    1
    26    11    37    1
    27    12    13    1
    28    12    38    1
    29    12    39    1
    30    13    40    1
    31    13    41    1
    32    14    16    1
    33    14    42    1
    34    14    43    1
    35    15    44    1
    36    15    45    1
    37    15    46    1
    38    16    21    2
    39    17    20    1
    40    17    47    1
    41    17    48    1
    42    18    49    1
    43    18    50    1
    44    18    51    1
    45    20    22    1
    46    20    52    1
    47    20    53    1
    48    21    54    1
    49    21    55    1
    50    22    24    1
    51    22    26    2
    52    23    25    1
    53    24    57    1
    54    24    58    1
    55    24    59    1
    56    25    28   ar
    57    25    29   ar
    58    26    27    1
    59    26    60    1
    60    27    61    1
    61    27    62    1
    62    28    30   ar
    63    28    63    1
    64    29    31   ar
    65    29    64    1
    66    30    32   ar
    67    30    65    1
    68    31    32   ar
    69    31    66    1
    70    32    67    1
