@<TRIPOS>MOLECULE
IMPHY017932
 21 20 0 0 0
SMALL
GASTEIGER

@<TRIPOS>ATOM
      1 C          16.4800   -1.9438    0.0000 C.3     1  UNL1        0.1096
      2 C          17.6632   -1.3311    0.0000 C.2     1  UNL1        0.3170
      3 C          15.2757   -1.3311    0.0000 C.3     1  UNL1        0.0116
      4 O          18.8041   -1.9438    0.0000 O.3     1  UNL1       -0.4485
      5 O          17.6632    0.0000    0.0000 O.2     1  UNL1       -0.2501
      6 C          14.1559   -1.9438    0.0000 C.3     1  UNL1        0.0006
      7 C          20.0085   -1.3311    0.0000 C.3     1  UNL1        0.2086
      8 C          21.1283   -1.9438    0.0000 C.3     1  UNL1        0.0513
      9 C          12.9516   -1.3311    0.0000 C.3     1  UNL1        0.0000
     10 C          11.7684   -1.8804    0.0000 C.3     1  UNL1        0.0003
     11 C          10.6275   -1.2677    0.0000 C.3     1  UNL1        0.0047
     12 C           9.4443   -1.8804    0.0000 C.3     1  UNL1        0.0257
     13 C           8.2400   -1.2677    0.0000 C.2     1  UNL1       -0.0307
     14 C           7.0991   -1.8804    0.0000 C.2     1  UNL1       -0.0307
     15 C           7.0357   -3.2749    0.0000 C.3     1  UNL1        0.0257
     16 C           5.9159   -3.9299    0.0000 C.3     1  UNL1        0.0047
     17 C           4.7750   -3.2749    0.0000 C.3     1  UNL1        0.0003
     18 C           3.5284   -3.9299    0.0000 C.3     1  UNL1        0.0000
     19 C           2.3875   -3.2749    0.0000 C.3     1  UNL1        0.0000
     20 C           1.2677   -3.9299    0.0000 C.3     1  UNL1        0.0000
     21 C           0.0000   -3.2749    0.0000 C.3     1  UNL1        0.0000
@<TRIPOS>BOND
     1     1     2    1
     2     1     3    1
     3     2     4    1
     4     2     5    2
     5     3     6    1
     6     4     7    1
     7     6     9    1
     8     7     8    1
     9     9    10    1
    10    10    11    1
    11    11    12    1
    12    12    13    1
    13    13    14    2
    14    14    15    1
    15    15    16    1
    16    16    17    1
    17    17    18    1
    18    18    19    1
    19    19    20    1
    20    20    21    1
