@<TRIPOS>MOLECULE
IMPHY011386
 41 42 0 0 0
SMALL
GASTEIGER

@<TRIPOS>ATOM
      1 C           4.5981   -0.4532    0.0000 C.3     1  UNL1       -0.0225
      2 C           4.5981    0.5468    0.0000 C.3     1  UNL1       -0.0297
      3 C           5.4920    1.0815    0.0000 C.3     1  UNL1       -0.0315
      4 C           3.7320   -0.9532    0.0000 C.3     1  UNL1       -0.0173
      5 C           5.4920   -0.9879    0.0000 C.3     1  UNL1       -0.0468
      6 C           3.7320    1.0468    0.0000 C.3     1  UNL1       -0.0455
      7 C           6.3981    0.5676    0.0000 C.3     1  UNL1       -0.0476
      8 C           6.3981   -0.4740    0.0000 C.3     1  UNL1       -0.0520
      9 C           4.5981   -1.4532    0.0000 C.3     1  UNL1       -0.0588
     10 C           2.8660    0.5468    0.0000 C.3     1  UNL1       -0.0314
     11 C           2.8660   -0.4532    0.0000 C.2     1  UNL1       -0.0733
     12 C           5.9820    1.9532    0.0000 C.3     1  UNL1       -0.0595
     13 C           4.9820    1.9416    0.0000 C.3     1  UNL1       -0.0595
     14 C           3.7320   -1.9532    0.0000 C.3     1  UNL1       -0.0582
     15 C           2.0000   -0.9532    0.0000 C.2     1  UNL1       -0.0992
     16 H           4.5915    1.3968    0.0000 H       1  UNL1        0.0311
     17 H           3.1951   -1.2632    0.0000 H       1  UNL1        0.0348
     18 H           5.0874   -1.4576    0.0000 H       1  UNL1        0.0271
     19 H           5.8856   -1.4669    0.0000 H       1  UNL1        0.0271
     20 H           4.1306    1.5217    0.0000 H       1  UNL1        0.0271
     21 H           3.3335    1.5217    0.0000 H       1  UNL1        0.0271
     22 H           7.0089    0.4615    0.0000 H       1  UNL1        0.0271
     23 H           6.6071    1.1513    0.0000 H       1  UNL1        0.0271
     24 H           6.6071   -1.0577    0.0000 H       1  UNL1        0.0266
     25 H           7.0089   -0.3679    0.0000 H       1  UNL1        0.0266
     26 H           3.9781   -1.4532    0.0000 H       1  UNL1        0.0235
     27 H           4.5981   -2.0732    0.0000 H       1  UNL1        0.0235
     28 H           5.2181   -1.4532    0.0000 H       1  UNL1        0.0235
     29 H           2.6540    1.1294    0.0000 H       1  UNL1        0.0310
     30 H           2.2554    0.4391    0.0000 H       1  UNL1        0.0310
     31 H           5.5154    2.2578    0.0000 H       1  UNL1        0.0235
     32 H           4.6658    2.4750    0.0000 H       1  UNL1        0.0235
     33 H           4.4487    1.6254    0.0000 H       1  UNL1        0.0235
     34 H           6.5225    1.6494    0.0000 H       1  UNL1        0.0235
     35 H           6.2857    2.4937    0.0000 H       1  UNL1        0.0235
     36 H           5.4415    2.2570    0.0000 H       1  UNL1        0.0235
     37 H           3.1120   -1.9532    0.0000 H       1  UNL1        0.0236
     38 H           3.7320   -2.5732    0.0000 H       1  UNL1        0.0236
     39 H           4.3520   -1.9532    0.0000 H       1  UNL1        0.0236
     40 H           1.4631   -0.6432    0.0000 H       1  UNL1        0.0534
     41 H           2.0000   -1.5732    0.0000 H       1  UNL1        0.0534
@<TRIPOS>BOND
     1     1     2    1
     2     1     4    1
     3     1     5    1
     4     1     9    1
     5     2     3    1
     6     2     6    1
     7     2    16    1
     8     3     7    1
     9     3    12    1
    10     3    13    1
    11     4    11    1
    12     4    14    1
    13     4    17    1
    14     5     8    1
    15     5    18    1
    16     5    19    1
    17     6    10    1
    18     6    20    1
    19     6    21    1
    20     7     8    1
    21     7    22    1
    22     7    23    1
    23     8    24    1
    24     8    25    1
    25     9    26    1
    26     9    27    1
    27     9    28    1
    28    10    11    1
    29    10    29    1
    30    10    30    1
    31    11    15    2
    32    12    34    1
    33    12    35    1
    34    12    36    1
    35    13    31    1
    36    13    32    1
    37    13    33    1
    38    14    37    1
    39    14    38    1
    40    14    39    1
    41    15    40    1
    42    15    41    1
