@<TRIPOS>MOLECULE
IMPHY012477
 52 55 0 0 0
SMALL
GASTEIGER

@<TRIPOS>ATOM
      1 O           5.5025    2.1251    0.0000 O.3     1  UNL1       -0.3531
      2 O           3.6362    3.3567    0.0000 O.3     1  UNL1       -0.3862
      3 O           6.3683   -0.3753    0.0000 O.2     1  UNL1       -0.2895
      4 O           2.0000    0.1278    0.0000 O.2     1  UNL1       -0.2924
      5 C           4.6523   -1.4168    0.0000 C.3     1  UNL1        0.0004
      6 C           4.6362    1.6247    0.0000 C.3     1  UNL1        0.1356
      7 C           3.7542   -1.9446    0.0000 C.3     1  UNL1       -0.0194
      8 C           5.5022    1.1247    0.0000 C.3     1  UNL1        0.1534
      9 C           3.7459   -3.0296    0.0000 C.3     1  UNL1       -0.0309
     10 C           4.6362   -0.3753    0.0000 C.2     1  UNL1        0.0105
     11 C           3.7702    1.1247    0.0000 C.3     1  UNL1        0.0109
     12 C           5.6042   -1.9375    0.0000 C.3     1  UNL1       -0.0432
     13 C           3.7702    0.1247    0.0000 C.2     1  UNL1        0.0050
     14 C           2.8522   -1.4238    0.0000 C.3     1  UNL1        0.0143
     15 C           4.1362    2.4907    0.0000 C.3     1  UNL1        0.0925
     16 C           5.5022    0.1247    0.0000 C.2     1  UNL1        0.1916
     17 C           4.6855   -3.5721    0.0000 C.3     1  UNL1       -0.0476
     18 C           5.6209   -3.0223    0.0000 C.3     1  UNL1       -0.0518
     19 C           5.5144   -0.9102    0.0000 C.3     1  UNL1       -0.0551
     20 C           2.8602   -0.3822    0.0000 C.2     1  UNL1        0.1600
     21 C           3.2425   -3.8936    0.0000 C.3     1  UNL1       -0.0595
     22 C           2.7459   -3.0257    0.0000 C.3     1  UNL1       -0.0595
     23 C           5.0022    2.9907    0.0000 C.3     1  UNL1       -0.0335
     24 C           3.2702    1.9908    0.0000 C.3     1  UNL1       -0.0335
     25 H           3.2161   -2.2525    0.0000 H       1  UNL1        0.0319
     26 H           6.1222    1.1246    0.0000 H       1  UNL1        0.0710
     27 H           3.5581    1.7073    0.0000 H       1  UNL1        0.0344
     28 H           3.1596    1.0170    0.0000 H       1  UNL1        0.0344
     29 H           6.2166   -2.0341    0.0000 H       1  UNL1        0.0274
     30 H           5.8042   -1.3506    0.0000 H       1  UNL1        0.0274
     31 H           2.2421   -1.3130    0.0000 H       1  UNL1        0.0348
     32 H           2.6386   -2.0058    0.0000 H       1  UNL1        0.0348
     33 H           4.2882   -4.0480    0.0000 H       1  UNL1        0.0271
     34 H           5.0865   -4.0450    0.0000 H       1  UNL1        0.0271
     35 H           5.8390   -3.6027    0.0000 H       1  UNL1        0.0266
     36 H           6.2301   -2.9068    0.0000 H       1  UNL1        0.0266
     37 H           5.8286   -1.4447    0.0000 H       1  UNL1        0.0238
     38 H           6.0489   -0.5961    0.0000 H       1  UNL1        0.0238
     39 H           5.2003   -0.3757    0.0000 H       1  UNL1        0.0238
     40 H           2.7068   -3.5816    0.0000 H       1  UNL1        0.0235
     41 H           2.9305   -4.4294    0.0000 H       1  UNL1        0.0235
     42 H           3.7783   -4.2057    0.0000 H       1  UNL1        0.0235
     43 H           2.7483   -2.4057    0.0000 H       1  UNL1        0.0235
     44 H           2.1259   -3.0233    0.0000 H       1  UNL1        0.0235
     45 H           2.7435   -3.6457    0.0000 H       1  UNL1        0.0235
     46 H           5.3122    2.4538    0.0000 H       1  UNL1        0.0258
     47 H           5.5392    3.3007    0.0000 H       1  UNL1        0.0258
     48 H           4.6922    3.5276    0.0000 H       1  UNL1        0.0258
     49 H           2.9602    2.5277    0.0000 H       1  UNL1        0.0258
     50 H           2.7332    1.6808    0.0000 H       1  UNL1        0.0258
     51 H           3.5802    1.4538    0.0000 H       1  UNL1        0.0258
     52 H           3.9462    3.8936    0.0000 H       1  UNL1        0.2103
@<TRIPOS>BOND
     1     1     6    1
     2     1     8    1
     3     2    15    1
     4     2    52    1
     5     3    16    2
     6     4    20    2
     7     5     7    1
     8     5    10    1
     9     5    12    1
    10     5    19    1
    11     6     8    1
    12     6    11    1
    13     6    15    1
    14     7     9    1
    15     7    14    1
    16     7    25    1
    17     8    16    1
    18     8    26    1
    19     9    17    1
    20     9    21    1
    21     9    22    1
    22    10    13    2
    23    10    16    1
    24    11    13    1
    25    11    27    1
    26    11    28    1
    27    12    18    1
    28    12    29    1
    29    12    30    1
    30    13    20    1
    31    14    20    1
    32    14    31    1
    33    14    32    1
    34    15    23    1
    35    15    24    1
    36    17    18    1
    37    17    33    1
    38    17    34    1
    39    18    35    1
    40    18    36    1
    41    19    37    1
    42    19    38    1
    43    19    39    1
    44    21    40    1
    45    21    41    1
    46    21    42    1
    47    22    43    1
    48    22    44    1
    49    22    45    1
    50    23    46    1
    51    23    47    1
    52    23    48    1
    53    24    49    1
    54    24    50    1
    55    24    51    1
