@<TRIPOS>MOLECULE
IMPHY016226
 40 39 0 0 0
SMALL
GASTEIGER

@<TRIPOS>ATOM
      1 O          12.3923   -0.2500    0.0000 O.3     1  UNL1       -0.3790
      2 C           5.4641   -0.2500    0.0000 C.3     1  UNL1       -0.0531
      3 C           6.3301    0.2500    0.0000 C.3     1  UNL1       -0.0530
      4 C           4.5981    0.2500    0.0000 C.3     1  UNL1       -0.0531
      5 C           7.1962   -0.2500    0.0000 C.3     1  UNL1       -0.0528
      6 C           3.7320   -0.2500    0.0000 C.3     1  UNL1       -0.0533
      7 C           8.0622    0.2500    0.0000 C.3     1  UNL1       -0.0496
      8 C           2.8660    0.2500    0.0000 C.3     1  UNL1       -0.0559
      9 C           8.9282   -0.2500    0.0000 C.3     1  UNL1       -0.0347
     10 C           2.0000   -0.2500    0.0000 C.3     1  UNL1       -0.0653
     11 C           9.7942    0.2500    0.0000 C.2     1  UNL1       -0.0858
     12 C          10.6603   -0.2500    0.0000 C.2     1  UNL1       -0.0626
     13 C          11.5263    0.2500    0.0000 C.3     1  UNL1        0.0655
     14 C          13.2583    0.2500    0.0000 C.3     1  UNL1        0.0368
     15 H           5.0656   -0.7249    0.0000 H       1  UNL1        0.0265
     16 H           5.8626   -0.7249    0.0000 H       1  UNL1        0.0265
     17 H           6.7287    0.7249    0.0000 H       1  UNL1        0.0265
     18 H           5.9316    0.7249    0.0000 H       1  UNL1        0.0265
     19 H           4.9966    0.7249    0.0000 H       1  UNL1        0.0265
     20 H           4.1996    0.7249    0.0000 H       1  UNL1        0.0265
     21 H           6.7976   -0.7249    0.0000 H       1  UNL1        0.0265
     22 H           7.5947   -0.7249    0.0000 H       1  UNL1        0.0265
     23 H           3.3335   -0.7249    0.0000 H       1  UNL1        0.0265
     24 H           4.1306   -0.7249    0.0000 H       1  UNL1        0.0265
     25 H           8.4607    0.7249    0.0000 H       1  UNL1        0.0268
     26 H           7.6636    0.7249    0.0000 H       1  UNL1        0.0268
     27 H           3.2646    0.7249    0.0000 H       1  UNL1        0.0263
     28 H           2.4675    0.7249    0.0000 H       1  UNL1        0.0263
     29 H           8.5297   -0.7249    0.0000 H       1  UNL1        0.0307
     30 H           9.3267   -0.7249    0.0000 H       1  UNL1        0.0307
     31 H           1.6900    0.2869    0.0000 H       1  UNL1        0.0230
     32 H           1.4631   -0.5600    0.0000 H       1  UNL1        0.0230
     33 H           2.3100   -0.7869    0.0000 H       1  UNL1        0.0230
     34 H           9.7942    0.8700    0.0000 H       1  UNL1        0.0570
     35 H          10.6603   -0.8700    0.0000 H       1  UNL1        0.0592
     36 H          11.9248    0.7249    0.0000 H       1  UNL1        0.0604
     37 H          11.1278    0.7249    0.0000 H       1  UNL1        0.0604
     38 H          13.5683   -0.2869    0.0000 H       1  UNL1        0.0524
     39 H          13.7953    0.5600    0.0000 H       1  UNL1        0.0524
     40 H          12.9483    0.7869    0.0000 H       1  UNL1        0.0524
@<TRIPOS>BOND
     1     1    13    1
     2     1    14    1
     3     2     3    1
     4     2     4    1
     5     2    15    1
     6     2    16    1
     7     3     5    1
     8     3    17    1
     9     3    18    1
    10     4     6    1
    11     4    19    1
    12     4    20    1
    13     5     7    1
    14     5    21    1
    15     5    22    1
    16     6     8    1
    17     6    23    1
    18     6    24    1
    19     7     9    1
    20     7    25    1
    21     7    26    1
    22     8    10    1
    23     8    27    1
    24     8    28    1
    25     9    11    1
    26     9    29    1
    27     9    30    1
    28    10    31    1
    29    10    32    1
    30    10    33    1
    31    11    12    2
    32    11    34    1
    33    12    13    1
    34    12    35    1
    35    13    36    1
    36    13    37    1
    37    14    38    1
    38    14    39    1
    39    14    40    1
