@<TRIPOS>MOLECULE
IMPHY007584
 163 162 0 0 0
SMALL
GASTEIGER

@<TRIPOS>ATOM
      1 O          16.7224    2.0600    0.0000 O.3     1  UNL1       -0.4544
      2 O          14.1244    1.5600    0.0000 O.3     1  UNL1       -0.4608
      3 O          14.9904    0.0600    0.0000 O.3     1  UNL1       -0.4608
      4 O          13.2583    3.0600    0.0000 O.2     1  UNL1       -0.2509
      5 O          17.5885    0.5600    0.0000 O.2     1  UNL1       -0.2508
      6 O          15.8564   -1.4400    0.0000 O.2     1  UNL1       -0.2509
      7 C           9.7942    2.0600    0.0000 C.3     1  UNL1       -0.0530
      8 C           8.9282    1.5600    0.0000 C.3     1  UNL1       -0.0528
      9 C           3.7320   -1.4400    0.0000 C.3     1  UNL1       -0.0530
     10 C           4.5981   -0.9400    0.0000 C.3     1  UNL1       -0.0528
     11 C          10.6603    1.5600    0.0000 C.3     1  UNL1       -0.0526
     12 C           8.0622    2.0600    0.0000 C.3     1  UNL1       -0.0496
     13 C           3.7320   -2.4400    0.0000 C.3     1  UNL1       -0.0531
     14 C           4.5981    0.0600    0.0000 C.3     1  UNL1       -0.0496
     15 C          11.5263    2.0600    0.0000 C.3     1  UNL1       -0.0430
     16 C          21.0526    1.5600    0.0000 C.3     1  UNL1       -0.0530
     17 C           7.1962    1.5600    0.0000 C.3     1  UNL1       -0.0348
     18 C           2.8660   -2.9400    0.0000 C.3     1  UNL1       -0.0533
     19 C          20.1865    2.0600    0.0000 C.3     1  UNL1       -0.0526
     20 C           5.4641    0.5600    0.0000 C.3     1  UNL1       -0.0348
     21 C          21.9186    2.0600    0.0000 C.3     1  UNL1       -0.0528
     22 C          13.2583   -3.9400    0.0000 C.3     1  UNL1       -0.0530
     23 C          13.2583   -2.9400    0.0000 C.3     1  UNL1       -0.0526
     24 C          12.3923   -4.4400    0.0000 C.3     1  UNL1       -0.0528
     25 C          19.3205    1.5600    0.0000 C.3     1  UNL1       -0.0430
     26 C          22.7846    1.5600    0.0000 C.3     1  UNL1       -0.0496
     27 C          14.1244   -2.4400    0.0000 C.3     1  UNL1       -0.0430
     28 C          12.3923    1.5600    0.0000 C.3     1  UNL1        0.0449
     29 C          12.3923   -5.4400    0.0000 C.3     1  UNL1       -0.0496
     30 C           2.8660   -3.9400    0.0000 C.3     1  UNL1       -0.0559
     31 C           6.3301    2.0600    0.0000 C.2     1  UNL1       -0.0879
     32 C           5.4641    1.5600    0.0000 C.2     1  UNL1       -0.0879
     33 C          18.4545    2.0600    0.0000 C.3     1  UNL1        0.0450
     34 C          15.8564    1.5600    0.0000 C.3     1  UNL1        0.1706
     35 C          14.1244   -1.4400    0.0000 C.3     1  UNL1        0.0449
     36 C          23.6506    2.0600    0.0000 C.3     1  UNL1       -0.0348
     37 C          11.5263   -5.9400    0.0000 C.3     1  UNL1       -0.0348
     38 C          14.9904    2.0600    0.0000 C.3     1  UNL1        0.1325
     39 C          15.8564    0.5600    0.0000 C.3     1  UNL1        0.1325
     40 C          13.2583    2.0600    0.0000 C.2     1  UNL1        0.3072
     41 C          17.5885    1.5600    0.0000 C.2     1  UNL1        0.3075
     42 C           2.0000   -4.4400    0.0000 C.3     1  UNL1       -0.0653
     43 C          14.9904   -0.9400    0.0000 C.2     1  UNL1        0.3072
     44 C          24.5167    1.5600    0.0000 C.2     1  UNL1       -0.0876
     45 C          11.5263   -6.9400    0.0000 C.2     1  UNL1       -0.0876
     46 C          25.3827    2.0600    0.0000 C.2     1  UNL1       -0.0842
     47 C          10.6603   -7.4400    0.0000 C.2     1  UNL1       -0.0842
     48 C          25.3827    3.0600    0.0000 C.3     1  UNL1       -0.0165
     49 C           9.7942   -6.9400    0.0000 C.3     1  UNL1       -0.0165
     50 C          25.3827    6.0600    0.0000 C.3     1  UNL1       -0.0496
     51 C           7.1962   -5.4400    0.0000 C.3     1  UNL1       -0.0496
     52 C          25.3827    5.0600    0.0000 C.3     1  UNL1       -0.0348
     53 C          26.2487    3.5600    0.0000 C.2     1  UNL1       -0.0842
     54 C           8.0622   -5.9400    0.0000 C.3     1  UNL1       -0.0348
     55 C           8.9282   -7.4400    0.0000 C.2     1  UNL1       -0.0842
     56 C          24.5167    6.5600    0.0000 C.3     1  UNL1       -0.0530
     57 C           7.1962   -4.4400    0.0000 C.3     1  UNL1       -0.0530
     58 C          26.2487    4.5600    0.0000 C.2     1  UNL1       -0.0876
     59 C           8.0622   -6.9400    0.0000 C.2     1  UNL1       -0.0876
     60 C          24.5167    7.5600    0.0000 C.3     1  UNL1       -0.0559
     61 C           6.3301   -3.9400    0.0000 C.3     1  UNL1       -0.0559
     62 C          23.6506    8.0600    0.0000 C.3     1  UNL1       -0.0653
     63 C           5.4641   -4.4400    0.0000 C.3     1  UNL1       -0.0653
     64 H          10.1928    2.5349    0.0000 H       1  UNL1        0.0265
     65 H           9.3957    2.5349    0.0000 H       1  UNL1        0.0265
     66 H           8.5297    1.0850    0.0000 H       1  UNL1        0.0265
     67 H           9.3267    1.0850    0.0000 H       1  UNL1        0.0265
     68 H           3.5200   -0.8574    0.0000 H       1  UNL1        0.0265
     69 H           3.1215   -1.5477    0.0000 H       1  UNL1        0.0265
     70 H           4.8101   -1.5226    0.0000 H       1  UNL1        0.0265
     71 H           5.2087   -0.8323    0.0000 H       1  UNL1        0.0265
     72 H          10.2617    1.0850    0.0000 H       1  UNL1        0.0265
     73 H          11.0588    1.0850    0.0000 H       1  UNL1        0.0265
     74 H           8.4607    2.5349    0.0000 H       1  UNL1        0.0268
     75 H           7.6636    2.5349    0.0000 H       1  UNL1        0.0268
     76 H           3.9441   -3.0226    0.0000 H       1  UNL1        0.0265
     77 H           4.3426   -2.3323    0.0000 H       1  UNL1        0.0265
     78 H           4.3860    0.6426    0.0000 H       1  UNL1        0.0268
     79 H           3.9875   -0.0477    0.0000 H       1  UNL1        0.0268
     80 H          11.9248    2.5349    0.0000 H       1  UNL1        0.0270
     81 H          11.1278    2.5349    0.0000 H       1  UNL1        0.0270
     82 H          20.6540    1.0850    0.0000 H       1  UNL1        0.0265
     83 H          21.4511    1.0850    0.0000 H       1  UNL1        0.0265
     84 H           6.7976    1.0850    0.0000 H       1  UNL1        0.0307
     85 H           7.5947    1.0850    0.0000 H       1  UNL1        0.0307
     86 H           2.6540   -2.3574    0.0000 H       1  UNL1        0.0265
     87 H           2.2554   -3.0477    0.0000 H       1  UNL1        0.0265
     88 H          20.5851    2.5349    0.0000 H       1  UNL1        0.0265
     89 H          19.7880    2.5349    0.0000 H       1  UNL1        0.0265
     90 H           5.6762   -0.0226    0.0000 H       1  UNL1        0.0307
     91 H           6.0747    0.6677    0.0000 H       1  UNL1        0.0307
     92 H          22.3171    2.5349    0.0000 H       1  UNL1        0.0265
     93 H          21.5201    2.5349    0.0000 H       1  UNL1        0.0265
     94 H          13.4704   -4.5226    0.0000 H       1  UNL1        0.0265
     95 H          13.8689   -3.8323    0.0000 H       1  UNL1        0.0265
     96 H          13.0463   -2.3574    0.0000 H       1  UNL1        0.0265
     97 H          12.6477   -3.0477    0.0000 H       1  UNL1        0.0265
     98 H          12.1803   -3.8574    0.0000 H       1  UNL1        0.0265
     99 H          11.7817   -4.5477    0.0000 H       1  UNL1        0.0265
    100 H          18.9220    1.0850    0.0000 H       1  UNL1        0.0270
    101 H          19.7190    1.0850    0.0000 H       1  UNL1        0.0270
    102 H          22.3861    1.0850    0.0000 H       1  UNL1        0.0268
    103 H          23.1831    1.0850    0.0000 H       1  UNL1        0.0268
    104 H          14.3364   -3.0226    0.0000 H       1  UNL1        0.0270
    105 H          14.7349   -2.3323    0.0000 H       1  UNL1        0.0270
    106 H          11.9938    1.0850    0.0000 H       1  UNL1        0.0377
    107 H          12.7908    1.0850    0.0000 H       1  UNL1        0.0377
    108 H          12.6044   -6.0226    0.0000 H       1  UNL1        0.0268
    109 H          13.0029   -5.3323    0.0000 H       1  UNL1        0.0268
    110 H           3.0781   -4.5226    0.0000 H       1  UNL1        0.0263
    111 H           3.4766   -3.8323    0.0000 H       1  UNL1        0.0263
    112 H           6.3301    2.6800    0.0000 H       1  UNL1        0.0569
    113 H           4.9272    1.8700    0.0000 H       1  UNL1        0.0569
    114 H          18.8530    2.5349    0.0000 H       1  UNL1        0.0377
    115 H          18.0560    2.5349    0.0000 H       1  UNL1        0.0377
    116 H          16.5925    1.1350    0.0000 H       1  UNL1        0.0803
    117 H          13.9123   -0.8574    0.0000 H       1  UNL1        0.0377
    118 H          13.5138   -1.5477    0.0000 H       1  UNL1        0.0377
    119 H          24.0492    2.5349    0.0000 H       1  UNL1        0.0307
    120 H          23.2521    2.5349    0.0000 H       1  UNL1        0.0307
    121 H          11.3142   -5.3574    0.0000 H       1  UNL1        0.0307
    122 H          10.9157   -6.0477    0.0000 H       1  UNL1        0.0307
    123 H          15.3889    2.5349    0.0000 H       1  UNL1        0.0736
    124 H          14.5919    2.5349    0.0000 H       1  UNL1        0.0736
    125 H          16.0685   -0.0226    0.0000 H       1  UNL1        0.0736
    126 H          16.4670    0.6677    0.0000 H       1  UNL1        0.0736
    127 H           1.6900   -3.9031    0.0000 H       1  UNL1        0.0230
    128 H           1.4631   -4.7500    0.0000 H       1  UNL1        0.0230
    129 H           2.3100   -4.9769    0.0000 H       1  UNL1        0.0230
    130 H          24.5167    0.9400    0.0000 H       1  UNL1        0.0569
    131 H          12.0632   -7.2500    0.0000 H       1  UNL1        0.0569
    132 H          25.9196    1.7500    0.0000 H       1  UNL1        0.0572
    133 H          10.6603   -8.0600    0.0000 H       1  UNL1        0.0572
    134 H          25.1706    3.6426    0.0000 H       1  UNL1        0.0350
    135 H          24.7721    2.9523    0.0000 H       1  UNL1        0.0350
    136 H          10.1928   -6.4650    0.0000 H       1  UNL1        0.0350
    137 H           9.3957   -6.4650    0.0000 H       1  UNL1        0.0350
    138 H          25.9933    5.9523    0.0000 H       1  UNL1        0.0268
    139 H          25.5947    6.6426    0.0000 H       1  UNL1        0.0268
    140 H           6.5856   -5.3323    0.0000 H       1  UNL1        0.0268
    141 H           6.9841   -6.0226    0.0000 H       1  UNL1        0.0268
    142 H          24.7721    5.1677    0.0000 H       1  UNL1        0.0307
    143 H          25.1706    4.4774    0.0000 H       1  UNL1        0.0307
    144 H          26.7856    3.2500    0.0000 H       1  UNL1        0.0572
    145 H           8.6728   -6.0477    0.0000 H       1  UNL1        0.0307
    146 H           8.2742   -5.3574    0.0000 H       1  UNL1        0.0307
    147 H           8.9282   -8.0600    0.0000 H       1  UNL1        0.0572
    148 H          23.9061    6.6677    0.0000 H       1  UNL1        0.0265
    149 H          24.3046    5.9774    0.0000 H       1  UNL1        0.0265
    150 H           7.8067   -4.5477    0.0000 H       1  UNL1        0.0265
    151 H           7.4082   -3.8574    0.0000 H       1  UNL1        0.0265
    152 H          26.7856    4.8700    0.0000 H       1  UNL1        0.0569
    153 H           7.5252   -7.2500    0.0000 H       1  UNL1        0.0569
    154 H          25.1272    7.4523    0.0000 H       1  UNL1        0.0263
    155 H          24.7287    8.1426    0.0000 H       1  UNL1        0.0263
    156 H           6.7287   -3.4650    0.0000 H       1  UNL1        0.0263
    157 H           5.9316   -3.4650    0.0000 H       1  UNL1        0.0263
    158 H          23.9606    8.5969    0.0000 H       1  UNL1        0.0230
    159 H          23.1137    8.3700    0.0000 H       1  UNL1        0.0230
    160 H          23.3406    7.5231    0.0000 H       1  UNL1        0.0230
    161 H           5.1541   -3.9031    0.0000 H       1  UNL1        0.0230
    162 H           4.9272   -4.7500    0.0000 H       1  UNL1        0.0230
    163 H           5.7741   -4.9769    0.0000 H       1  UNL1        0.0230
@<TRIPOS>BOND
     1     1    34    1
     2     1    41    1
     3     2    38    1
     4     2    40    1
     5     3    39    1
     6     3    43    1
     7     4    40    2
     8     5    41    2
     9     6    43    2
    10     7     8    1
    11     7    11    1
    12     7    64    1
    13     7    65    1
    14     8    12    1
    15     8    66    1
    16     8    67    1
    17     9    10    1
    18     9    13    1
    19     9    68    1
    20     9    69    1
    21    10    14    1
    22    10    70    1
    23    10    71    1
    24    11    15    1
    25    11    72    1
    26    11    73    1
    27    12    17    1
    28    12    74    1
    29    12    75    1
    30    13    18    1
    31    13    76    1
    32    13    77    1
    33    14    20    1
    34    14    78    1
    35    14    79    1
    36    15    28    1
    37    15    80    1
    38    15    81    1
    39    16    19    1
    40    16    21    1
    41    16    82    1
    42    16    83    1
    43    17    31    1
    44    17    84    1
    45    17    85    1
    46    18    30    1
    47    18    86    1
    48    18    87    1
    49    19    25    1
    50    19    88    1
    51    19    89    1
    52    20    32    1
    53    20    90    1
    54    20    91    1
    55    21    26    1
    56    21    92    1
    57    21    93    1
    58    22    23    1
    59    22    24    1
    60    22    94    1
    61    22    95    1
    62    23    27    1
    63    23    96    1
    64    23    97    1
    65    24    29    1
    66    24    98    1
    67    24    99    1
    68    25    33    1
    69    25   100    1
    70    25   101    1
    71    26    36    1
    72    26   102    1
    73    26   103    1
    74    27    35    1
    75    27   104    1
    76    27   105    1
    77    28    40    1
    78    28   106    1
    79    28   107    1
    80    29    37    1
    81    29   108    1
    82    29   109    1
    83    30    42    1
    84    30   110    1
    85    30   111    1
    86    31    32    2
    87    31   112    1
    88    32   113    1
    89    33    41    1
    90    33   114    1
    91    33   115    1
    92    34    38    1
    93    34    39    1
    94    34   116    1
    95    35    43    1
    96    35   117    1
    97    35   118    1
    98    36    44    1
    99    36   119    1
   100    36   120    1
   101    37    45    1
   102    37   121    1
   103    37   122    1
   104    38   123    1
   105    38   124    1
   106    39   125    1
   107    39   126    1
   108    42   127    1
   109    42   128    1
   110    42   129    1
   111    44    46    2
   112    44   130    1
   113    45    47    2
   114    45   131    1
   115    46    48    1
   116    46   132    1
   117    47    49    1
   118    47   133    1
   119    48    53    1
   120    48   134    1
   121    48   135    1
   122    49    55    1
   123    49   136    1
   124    49   137    1
   125    50    52    1
   126    50    56    1
   127    50   138    1
   128    50   139    1
   129    51    54    1
   130    51    57    1
   131    51   140    1
   132    51   141    1
   133    52    58    1
   134    52   142    1
   135    52   143    1
   136    53    58    2
   137    53   144    1
   138    54    59    1
   139    54   145    1
   140    54   146    1
   141    55    59    2
   142    55   147    1
   143    56    60    1
   144    56   148    1
   145    56   149    1
   146    57    61    1
   147    57   150    1
   148    57   151    1
   149    58   152    1
   150    59   153    1
   151    60    62    1
   152    60   154    1
   153    60   155    1
   154    61    63    1
   155    61   156    1
   156    61   157    1
   157    62   158    1
   158    62   159    1
   159    62   160    1
   160    63   161    1
   161    63   162    1
   162    63   163    1
