@<TRIPOS>MOLECULE
IMPHY007665
 52 57 0 0 0
SMALL
GASTEIGER

@<TRIPOS>ATOM
      1 O          11.0414    1.6472    0.0000 O.3     1  UNL1       -0.4930
      2 O           6.6498    2.5551    0.0000 O.2     1  UNL1       -0.2850
      3 O           5.3923   -1.3149    0.0000 O.2     1  UNL1       -0.2869
      4 N          10.2080   -0.3946    0.0000 N.ar    1  UNL1       -0.3513
      5 N           4.5274    1.9561    0.0000 N.ar    1  UNL1       -0.3510
      6 C           8.0321    1.0435    0.0000 C.ar    1  UNL1       -0.0009
      7 C           8.7350    0.2749    0.0000 C.ar    1  UNL1        0.0191
      8 C           7.0547    0.8319    0.0000 C.2     1  UNL1        0.0383
      9 C           9.7147    0.4752    0.0000 C.ar    1  UNL1        0.0903
     10 C           8.6228   -0.7188    0.0000 C.ar    1  UNL1        0.0081
     11 C           5.0274    0.4172    0.0000 C.ar    1  UNL1        0.0581
     12 C           5.3364    1.3683    0.0000 C.ar    1  UNL1        0.0991
     13 C           8.3539    2.0342    0.0000 C.ar    1  UNL1       -0.0385
     14 C           6.7328   -0.1588    0.0000 C.2     1  UNL1        0.0083
     15 C           6.3518    1.6006    0.0000 C.2     1  UNL1        0.2108
     16 C           9.5332   -1.1326    0.0000 C.ar    1  UNL1        0.0476
     17 C           4.0274    0.4172    0.0000 C.ar    1  UNL1        0.0112
     18 C           5.7123   -0.3675    0.0000 C.2     1  UNL1        0.1923
     19 C          10.0594    1.4582    0.0000 C.ar    1  UNL1        0.1442
     20 C           3.7183    1.3683    0.0000 C.ar    1  UNL1        0.0477
     21 C           9.3744    2.2429    0.0000 C.ar    1  UNL1       -0.0144
     22 C           7.7662   -1.3114    0.0000 C.ar    1  UNL1       -0.0520
     23 C           7.6877    2.7799    0.0000 C.3     1  UNL1       -0.0390
     24 C           6.9370   -1.1377    0.0000 C.3     1  UNL1       -0.0354
     25 C           9.6500   -2.1676    0.0000 C.ar    1  UNL1       -0.0378
     26 C           3.3424   -0.3675    0.0000 C.ar    1  UNL1       -0.0519
     27 C           2.7029    1.6006    0.0000 C.ar    1  UNL1       -0.0378
     28 C           7.8591   -2.3489    0.0000 C.ar    1  UNL1       -0.0611
     29 C           8.8074   -2.7799    0.0000 C.ar    1  UNL1       -0.0598
     30 C           2.3219   -0.1588    0.0000 C.ar    1  UNL1       -0.0611
     31 C           2.0000    0.8319    0.0000 C.ar    1  UNL1       -0.0598
     32 C          11.3687    2.5921    0.0000 C.3     1  UNL1        0.0789
     33 H          10.8241   -0.4642    0.0000 H       1  UNL1        0.1660
     34 H           9.5728    2.8303    0.0000 H       1  UNL1        0.0658
     35 H           4.5274    2.5761    0.0000 H       1  UNL1        0.1660
     36 H           7.2047   -1.0484    0.0000 H       1  UNL1        0.0624
     37 H           8.1500    3.1930    0.0000 H       1  UNL1        0.0278
     38 H           7.2746    3.2422    0.0000 H       1  UNL1        0.0278
     39 H           7.2253    2.3668    0.0000 H       1  UNL1        0.0278
     40 H           6.3300   -1.2643    0.0000 H       1  UNL1        0.0279
     41 H           7.0635   -1.7447    0.0000 H       1  UNL1        0.0279
     42 H           7.5439   -1.0112    0.0000 H       1  UNL1        0.0279
     43 H          10.2174   -2.4176    0.0000 H       1  UNL1        0.0638
     44 H           3.5408   -0.9549    0.0000 H       1  UNL1        0.0624
     45 H           2.5182    2.1924    0.0000 H       1  UNL1        0.0638
     46 H           7.3533   -2.7075    0.0000 H       1  UNL1        0.0618
     47 H           8.8698   -3.3968    0.0000 H       1  UNL1        0.0618
     48 H           1.9088   -0.6211    0.0000 H       1  UNL1        0.0618
     49 H           1.3940    0.9631    0.0000 H       1  UNL1        0.0618
     50 H          11.9545    2.3892    0.0000 H       1  UNL1        0.0660
     51 H          11.5716    3.1780    0.0000 H       1  UNL1        0.0660
     52 H          10.7828    2.7950    0.0000 H       1  UNL1        0.0660
@<TRIPOS>BOND
     1     1    19    1
     2     1    32    1
     3     2    15    2
     4     3    18    2
     5     4     9   ar
     6     4    16   ar
     7     4    33    1
     8     5    12   ar
     9     5    20   ar
    10     5    35    1
    11     6     7   ar
    12     6     8    1
    13     6    13   ar
    14     7     9   ar
    15     7    10   ar
    16     8    14    2
    17     8    15    1
    18     9    19   ar
    19    10    16   ar
    20    10    22   ar
    21    11    12   ar
    22    11    17   ar
    23    11    18    1
    24    12    15    1
    25    13    21   ar
    26    13    23    1
    27    14    18    1
    28    14    24    1
    29    16    25   ar
    30    17    20   ar
    31    17    26   ar
    32    19    21   ar
    33    20    27   ar
    34    21    34    1
    35    22    28   ar
    36    22    36    1
    37    23    37    1
    38    23    38    1
    39    23    39    1
    40    24    40    1
    41    24    41    1
    42    24    42    1
    43    25    29   ar
    44    25    43    1
    45    26    30   ar
    46    26    44    1
    47    27    31   ar
    48    27    45    1
    49    28    29   ar
    50    28    46    1
    51    29    47    1
    52    30    31   ar
    53    30    48    1
    54    31    49    1
    55    32    50    1
    56    32    51    1
    57    32    52    1
