@<TRIPOS>MOLECULE
IMPHY011516
 46 48 0 0 0
SMALL
GASTEIGER

@<TRIPOS>ATOM
      1 O           6.8671   -0.2866    0.0000 O.3     1  UNL1       -0.3093
      2 O           5.1350   -0.2866    0.0000 O.3     1  UNL1       -0.3404
      3 O           6.0010    1.2134    0.0000 O.2     1  UNL1       -0.4707
      4 O           8.9900    3.4687    0.0000 O.3     1  UNL1       -0.3872
      5 O           6.8671   -2.2866    0.0000 O.3     1  UNL1       -0.3841
      6 O           5.1350   -3.2866    0.0000 O.3     1  UNL1       -0.3864
      7 O           3.4030   -2.2866    0.0000 O.3     1  UNL1       -0.3865
      8 O           9.9685   -0.2480    0.0000 O.3     1  UNL1       -0.3907
      9 O           2.5369   -0.7866    0.0000 O.3     1  UNL1       -0.3924
     10 C           7.7331    1.2134    0.0000 C.3     1  UNL1        0.0539
     11 C           7.7331    2.2134    0.0000 C.3     1  UNL1        0.0221
     12 C           6.8671    0.7134    0.0000 C.3     1  UNL1        0.2106
     13 C           8.6793    2.5182    0.0000 C.3     1  UNL1        0.0807
     14 C           8.6793    0.9087    0.0000 C.2     1  UNL1       -0.0363
     15 C           6.0010   -0.7866    0.0000 C.3     1  UNL1        0.1918
     16 C           6.0010   -1.7866    0.0000 C.3     1  UNL1        0.1342
     17 C           9.2629    1.7134    0.0000 C.2     1  UNL1       -0.0534
     18 C           5.1350   -2.2866    0.0000 C.3     1  UNL1        0.1141
     19 C           4.2690   -1.7866    0.0000 C.3     1  UNL1        0.1119
     20 C           4.2690   -0.7866    0.0000 C.3     1  UNL1        0.1130
     21 C           6.8671    2.7134    0.0000 C.2     1  UNL1       -0.0430
     22 C           8.9900   -0.0418    0.0000 C.3     1  UNL1        0.0659
     23 C           6.0010    2.2134    0.0000 C.2     1  UNL1        0.0843
     24 C           3.4030   -0.2866    0.0000 C.3     1  UNL1        0.0730
     25 H           7.8230    0.3682    0.0000 H       1  UNL1        0.0414
     26 H           7.8230    3.0587    0.0000 H       1  UNL1        0.0380
     27 H           7.4040    0.4034    0.0000 H       1  UNL1        0.1062
     28 H           8.2418    2.9575    0.0000 H       1  UNL1        0.0644
     29 H           6.0010   -0.1666    0.0000 H       1  UNL1        0.0939
     30 H           6.0010   -2.4066    0.0000 H       1  UNL1        0.0671
     31 H           4.5981   -2.5966    0.0000 H       1  UNL1        0.0648
     32 H           9.8829    1.7134    0.0000 H       1  UNL1        0.0598
     33 H           3.7320   -1.4766    0.0000 H       1  UNL1        0.0647
     34 H           4.2690   -0.1666    0.0000 H       1  UNL1        0.0647
     35 H           6.8671    3.3334    0.0000 H       1  UNL1        0.0606
     36 H           8.3762   -0.1292    0.0000 H       1  UNL1        0.0604
     37 H           8.9694   -0.6615    0.0000 H       1  UNL1        0.0604
     38 H           5.4641    2.5234    0.0000 H       1  UNL1        0.1021
     39 H           3.8015    0.1884    0.0000 H       1  UNL1        0.0584
     40 H           3.0044    0.1884    0.0000 H       1  UNL1        0.0584
     41 H           9.5966    3.5966    0.0000 H       1  UNL1        0.2102
     42 H           6.8671   -2.9066    0.0000 H       1  UNL1        0.2101
     43 H           4.5981   -3.5966    0.0000 H       1  UNL1        0.2100
     44 H           3.4030   -2.9066    0.0000 H       1  UNL1        0.2100
     45 H          10.1611   -0.8373    0.0000 H       1  UNL1        0.2098
     46 H           2.0000   -0.4766    0.0000 H       1  UNL1        0.2095
@<TRIPOS>BOND
     1    12     1    1
     2    15     1    1
     3     2    15    1
     4     2    20    1
     5     3    12    1
     6     3    23    1
     7    13     4    1
     8     4    41    1
     9    16     5    1
    10     5    42    1
    11    18     6    1
    12     6    43    1
    13    19     7    1
    14     7    44    1
    15     8    22    1
    16     8    45    1
    17     9    24    1
    18     9    46    1
    19    10    11    1
    20    10    12    1
    21    10    14    1
    22    10    25    1
    23    11    13    1
    24    11    21    1
    25    11    26    1
    26    12    27    1
    27    13    17    1
    28    13    28    1
    29    14    17    2
    30    14    22    1
    31    15    16    1
    32    15    29    1
    33    16    18    1
    34    16    30    1
    35    17    32    1
    36    18    19    1
    37    18    31    1
    38    19    20    1
    39    19    33    1
    40    20    24    1
    41    20    34    1
    42    21    23    2
    43    21    35    1
    44    22    36    1
    45    22    37    1
    46    23    38    1
    47    24    39    1
    48    24    40    1
