@<TRIPOS>MOLECULE
IMPHY009292
 37 41 0 0 0
SMALL
GASTEIGER

@<TRIPOS>ATOM
      1 O           7.0301   -2.2777    0.0000 O.2     1  UNL1       -0.4216
      2 O           2.5805   -0.5133    0.0000 O.3     1  UNL1       -0.4526
      3 O           2.5867    1.0961    0.0000 O.3     1  UNL1       -0.4525
      4 O          10.6023   -2.0478    0.0000 O.2     1  UNL1       -0.4628
      5 O           6.1317    1.2777    0.0000 O.3     1  UNL1       -0.4944
      6 O           5.2599   -2.2672    0.0000 O.2     1  UNL1       -0.2445
      7 C           5.2599   -0.2189    0.0000 C.ar    1  UNL1        0.0343
      8 C           6.1240   -0.7223    0.0000 C.ar    1  UNL1        0.0708
      9 C           7.9240   -0.7431    0.0000 C.ar    1  UNL1        0.0190
     10 C           7.9240   -1.7431    0.0000 C.ar    1  UNL1        0.1426
     11 C           7.0301   -0.2084    0.0000 C.ar    1  UNL1       -0.0364
     12 C           5.2638    0.7811    0.0000 C.ar    1  UNL1        0.1317
     13 C           3.5279   -0.2122    0.0000 C.ar    1  UNL1        0.1670
     14 C           9.6561   -0.7431    0.0000 C.ar    1  UNL1        0.0209
     15 C           4.3920   -0.7156    0.0000 C.ar    1  UNL1       -0.0047
     16 C           8.7901   -0.2431    0.0000 C.ar    1  UNL1       -0.0403
     17 C           3.5317    0.7878    0.0000 C.ar    1  UNL1        0.1697
     18 C           9.6561   -1.7431    0.0000 C.ar    1  UNL1        0.1383
     19 C           8.7901   -2.2431    0.0000 C.ar    1  UNL1        0.0243
     20 C           4.3997    1.2844    0.0000 C.ar    1  UNL1        0.0262
     21 C           6.1240   -1.7639    0.0000 C.ar    1  UNL1        0.3452
     22 C          10.6023   -0.4383    0.0000 C.ar    1  UNL1       -0.0161
     23 C           2.0000    0.2937    0.0000 C.3     1  UNL1        0.2332
     24 C          11.1859   -1.2431    0.0000 C.ar    1  UNL1        0.0931
     25 C           6.1356    2.2777    0.0000 C.3     1  UNL1        0.0788
     26 H           7.0373    0.4116    0.0000 H       1  UNL1        0.0633
     27 H           4.3896   -1.3356    0.0000 H       1  UNL1        0.0663
     28 H           8.7901    0.3769    0.0000 H       1  UNL1        0.0632
     29 H           8.7901   -2.8631    0.0000 H       1  UNL1        0.0692
     30 H           4.4021    1.9044    0.0000 H       1  UNL1        0.0692
     31 H           1.5407    0.7102    0.0000 H       1  UNL1        0.1166
     32 H           1.5375   -0.1193    0.0000 H       1  UNL1        0.1166
     33 H          10.7949    0.1510    0.0000 H       1  UNL1        0.0655
     34 H          11.8059   -1.2431    0.0000 H       1  UNL1        0.1029
     35 H           6.7556    2.2753    0.0000 H       1  UNL1        0.0660
     36 H           6.1380    2.8977    0.0000 H       1  UNL1        0.0660
     37 H           5.5156    2.2801    0.0000 H       1  UNL1        0.0660
@<TRIPOS>BOND
     1     1    10   ar
     2     1    21   ar
     3     2    13    1
     4     2    23    1
     5     3    17    1
     6     3    23    1
     7     4    18   ar
     8     4    24   ar
     9     5    12    1
    10     5    25    1
    11     6    21    2
    12     7     8    1
    13     7    12   ar
    14     7    15   ar
    15     8    11   ar
    16     8    21   ar
    17     9    10   ar
    18     9    11   ar
    19     9    16   ar
    20    10    19   ar
    21    11    26    1
    22    12    20   ar
    23    13    15   ar
    24    13    17   ar
    25    14    16   ar
    26    14    18   ar
    27    14    22   ar
    28    15    27    1
    29    16    28    1
    30    17    20   ar
    31    18    19   ar
    32    19    29    1
    33    20    30    1
    34    22    24   ar
    35    22    33    1
    36    23    31    1
    37    23    32    1
    38    24    34    1
    39    25    35    1
    40    25    36    1
    41    25    37    1
