@<TRIPOS>MOLECULE
IMPHY016071
 28 27 0 0 0
SMALL
GASTEIGER

@<TRIPOS>ATOM
      1 O           5.4641    0.2500    0.0000 O.3     1  UNL1       -0.4570
      2 O           6.3301   -1.2500    0.0000 O.2     1  UNL1       -0.2453
      3 C           3.7320    0.2500    0.0000 C.2     1  UNL1       -0.0399
      4 C           4.5981   -0.2500    0.0000 C.3     1  UNL1        0.1137
      5 C           3.7320    1.2500    0.0000 C.3     1  UNL1       -0.0406
      6 C           2.8660   -0.2500    0.0000 C.2     1  UNL1       -0.0849
      7 C           7.1962    0.2500    0.0000 C.2     1  UNL1        0.0293
      8 C           6.3301   -0.2500    0.0000 C.2     1  UNL1        0.3349
      9 C           7.1962    1.2500    0.0000 C.3     1  UNL1       -0.0333
     10 C           8.0622   -0.2500    0.0000 C.2     1  UNL1       -0.0774
     11 C           2.0000    0.2500    0.0000 C.3     1  UNL1       -0.0465
     12 C           8.0622   -1.2500    0.0000 C.3     1  UNL1       -0.0461
     13 H           4.1996   -0.7249    0.0000 H       1  UNL1        0.0745
     14 H           4.9966   -0.7249    0.0000 H       1  UNL1        0.0745
     15 H           4.3520    1.2500    0.0000 H       1  UNL1        0.0275
     16 H           3.7320    1.8700    0.0000 H       1  UNL1        0.0275
     17 H           3.1120    1.2500    0.0000 H       1  UNL1        0.0275
     18 H           2.8660   -0.8700    0.0000 H       1  UNL1        0.0570
     19 H           7.8162    1.2500    0.0000 H       1  UNL1        0.0280
     20 H           7.1962    1.8700    0.0000 H       1  UNL1        0.0280
     21 H           6.5762    1.2500    0.0000 H       1  UNL1        0.0280
     22 H           8.5991    0.0600    0.0000 H       1  UNL1        0.0574
     23 H           2.3100    0.7869    0.0000 H       1  UNL1        0.0272
     24 H           1.4631    0.5600    0.0000 H       1  UNL1        0.0272
     25 H           1.6900   -0.2869    0.0000 H       1  UNL1        0.0272
     26 H           7.4422   -1.2500    0.0000 H       1  UNL1        0.0272
     27 H           8.0622   -1.8700    0.0000 H       1  UNL1        0.0272
     28 H           8.6822   -1.2500    0.0000 H       1  UNL1        0.0272
@<TRIPOS>BOND
     1     1     4    1
     2     1     8    1
     3     2     8    2
     4     3     4    1
     5     3     5    1
     6     3     6    2
     7     4    13    1
     8     4    14    1
     9     5    15    1
    10     5    16    1
    11     5    17    1
    12     6    11    1
    13     6    18    1
    14     7     8    1
    15     7     9    1
    16     7    10    2
    17     9    19    1
    18     9    20    1
    19     9    21    1
    20    10    12    1
    21    10    22    1
    22    11    23    1
    23    11    24    1
    24    11    25    1
    25    12    26    1
    26    12    27    1
    27    12    28    1
