@<TRIPOS>MOLECULE
IMPHY009477
 55 58 0 0 0
SMALL
GASTEIGER

@<TRIPOS>ATOM
      1 O           5.1350   -1.2857    0.0000 O.3     1  UNL1       -0.3405
      2 O           6.8671   -1.2857    0.0000 O.3     1  UNL1       -0.3411
      3 O           7.7331    1.2143    0.0000 O.3     1  UNL1       -0.4811
      4 O           6.8671   -3.2857    0.0000 O.3     1  UNL1       -0.3841
      5 O           5.1350   -4.2857    0.0000 O.3     1  UNL1       -0.3864
      6 O           3.4030   -3.2857    0.0000 O.3     1  UNL1       -0.3865
      7 O           2.5369   -1.7857    0.0000 O.3     1  UNL1       -0.3924
      8 O           4.2308    1.2112    0.0000 O.3     1  UNL1       -0.5063
      9 O           5.9889    4.2836    0.0000 O.3     1  UNL1       -0.5065
     10 O          11.1972   -1.7857    0.0000 O.3     1  UNL1       -0.5068
     11 C           6.0010   -2.7857    0.0000 C.3     1  UNL1        0.1341
     12 C           6.0010   -1.7857    0.0000 C.3     1  UNL1        0.1884
     13 C           5.1350   -3.2857    0.0000 C.3     1  UNL1        0.1141
     14 C           4.2690   -2.7857    0.0000 C.3     1  UNL1        0.1119
     15 C           4.2690   -1.7857    0.0000 C.3     1  UNL1        0.1130
     16 C           6.8671   -0.2857    0.0000 C.3     1  UNL1        0.1069
     17 C           7.7331    0.2143    0.0000 C.3     1  UNL1        0.1515
     18 C           6.0010    0.2143    0.0000 C.3     1  UNL1        0.0096
     19 C           3.4030   -1.2857    0.0000 C.3     1  UNL1        0.0730
     20 C           6.0010    1.2143    0.0000 C.ar    1  UNL1        0.0384
     21 C           8.5991   -0.2857    0.0000 C.ar    1  UNL1       -0.0046
     22 C           6.8671    1.7143    0.0000 C.ar    1  UNL1        0.1317
     23 C           5.0910    1.7212    0.0000 C.ar    1  UNL1        0.1270
     24 C           6.8831    2.7558    0.0000 C.ar    1  UNL1        0.0221
     25 C           9.4651    0.2143    0.0000 C.ar    1  UNL1       -0.0515
     26 C           8.5991   -1.2857    0.0000 C.ar    1  UNL1       -0.0515
     27 C           5.0830    2.7628    0.0000 C.ar    1  UNL1        0.0218
     28 C           5.9851    3.2836    0.0000 C.ar    1  UNL1        0.1238
     29 C          10.3312   -0.2857    0.0000 C.ar    1  UNL1       -0.0198
     30 C           9.4651   -1.7857    0.0000 C.ar    1  UNL1       -0.0198
     31 C          10.3312   -1.2857    0.0000 C.ar    1  UNL1        0.1169
     32 H           6.0010   -3.4057    0.0000 H       1  UNL1        0.0671
     33 H           6.0010   -1.1657    0.0000 H       1  UNL1        0.0938
     34 H           4.5981   -3.5957    0.0000 H       1  UNL1        0.0648
     35 H           4.2690   -3.4057    0.0000 H       1  UNL1        0.0647
     36 H           4.2690   -1.1657    0.0000 H       1  UNL1        0.0647
     37 H           7.4040   -0.5957    0.0000 H       1  UNL1        0.0641
     38 H           8.2700    0.5243    0.0000 H       1  UNL1        0.0811
     39 H           5.3905    0.3220    0.0000 H       1  UNL1        0.0342
     40 H           5.7890   -0.3683    0.0000 H       1  UNL1        0.0342
     41 H           3.8015   -0.8107    0.0000 H       1  UNL1        0.0584
     42 H           3.0044   -0.8107    0.0000 H       1  UNL1        0.0584
     43 H           6.8671   -3.9057    0.0000 H       1  UNL1        0.2101
     44 H           4.5981   -4.5957    0.0000 H       1  UNL1        0.2100
     45 H           3.4030   -3.9057    0.0000 H       1  UNL1        0.2100
     46 H           7.4236    3.0596    0.0000 H       1  UNL1        0.0691
     47 H           9.4651    0.8343    0.0000 H       1  UNL1        0.0623
     48 H           8.0622   -1.5957    0.0000 H       1  UNL1        0.0623
     49 H           4.5449    3.0707    0.0000 H       1  UNL1        0.0691
     50 H           2.0000   -1.4757    0.0000 H       1  UNL1        0.2095
     51 H          10.8681    0.0243    0.0000 H       1  UNL1        0.0654
     52 H           9.4651   -2.4057    0.0000 H       1  UNL1        0.0654
     53 H           3.6904    1.5150    0.0000 H       1  UNL1        0.2921
     54 H           5.4532    4.5957    0.0000 H       1  UNL1        0.2921
     55 H          11.7341   -1.4757    0.0000 H       1  UNL1        0.2921
@<TRIPOS>BOND
     1     1    12    1
     2     1    15    1
     3     2    12    1
     4     2    16    1
     5     3    17    1
     6     3    22    1
     7     4    11    1
     8     4    43    1
     9     5    13    1
    10     5    44    1
    11     6    14    1
    12     6    45    1
    13     7    19    1
    14     7    50    1
    15     8    23    1
    16     8    53    1
    17     9    28    1
    18     9    54    1
    19    10    31    1
    20    10    55    1
    21    11    12    1
    22    11    13    1
    23    11    32    1
    24    12    33    1
    25    13    14    1
    26    13    34    1
    27    14    15    1
    28    14    35    1
    29    15    19    1
    30    15    36    1
    31    16    17    1
    32    16    18    1
    33    16    37    1
    34    17    21    1
    35    17    38    1
    36    18    20    1
    37    18    39    1
    38    18    40    1
    39    19    41    1
    40    19    42    1
    41    20    22   ar
    42    20    23   ar
    43    21    25   ar
    44    21    26   ar
    45    22    24   ar
    46    23    27   ar
    47    24    28   ar
    48    24    46    1
    49    25    29   ar
    50    25    47    1
    51    26    30   ar
    52    26    48    1
    53    27    28   ar
    54    27    49    1
    55    29    31   ar
    56    29    51    1
    57    30    31   ar
    58    30    52    1
