@<TRIPOS>MOLECULE
IMPHY016600
 22 22 0 0 0
SMALL
GASTEIGER

@<TRIPOS>ATOM
      1 C           4.5691   -0.3184    0.0000 C.3     1  UNL1       -0.0373
      2 C           3.7601    0.2694    0.0000 C.3     1  UNL1       -0.0204
      3 C           4.2601   -1.2694    0.0000 C.3     1  UNL1       -0.0462
      4 C           3.2601   -1.2694    0.0000 C.3     1  UNL1       -0.0315
      5 C           2.9511   -0.3184    0.0000 C.2     1  UNL1       -0.0735
      6 C           5.5202   -0.0093    0.0000 C.3     1  UNL1       -0.0619
      7 C           3.7601    1.2694    0.0000 C.3     1  UNL1       -0.0585
      8 C           2.0000   -0.0093    0.0000 C.2     1  UNL1       -0.0992
      9 H           4.6661    0.2940    0.0000 H       1  UNL1        0.0304
     10 H           4.3125    0.5509    0.0000 H       1  UNL1        0.0345
     11 H           4.1953   -1.8860    0.0000 H       1  UNL1        0.0271
     12 H           4.8665   -1.3983    0.0000 H       1  UNL1        0.0271
     13 H           2.6536   -1.3983    0.0000 H       1  UNL1        0.0310
     14 H           3.3249   -1.8860    0.0000 H       1  UNL1        0.0310
     15 H           5.7117   -0.5990    0.0000 H       1  UNL1        0.0233
     16 H           6.1098    0.1822    0.0000 H       1  UNL1        0.0233
     17 H           5.3286    0.5803    0.0000 H       1  UNL1        0.0233
     18 H           4.3801    1.2694    0.0000 H       1  UNL1        0.0236
     19 H           3.7601    1.8894    0.0000 H       1  UNL1        0.0236
     20 H           3.1401    1.2694    0.0000 H       1  UNL1        0.0236
     21 H           1.8711    0.5971    0.0000 H       1  UNL1        0.0534
     22 H           1.5392   -0.4242    0.0000 H       1  UNL1        0.0534
@<TRIPOS>BOND
     1     1     2    1
     2     1     3    1
     3     1     6    1
     4     1     9    1
     5     2     5    1
     6     2     7    1
     7     2    10    1
     8     3     4    1
     9     3    11    1
    10     3    12    1
    11     4     5    1
    12     4    13    1
    13     4    14    1
    14     5     8    2
    15     6    15    1
    16     6    16    1
    17     6    17    1
    18     7    18    1
    19     7    19    1
    20     7    20    1
    21     8    21    1
    22     8    22    1
