@<TRIPOS>MOLECULE
IMPHY007821
 43 45 0 0 0
SMALL
GASTEIGER

@<TRIPOS>ATOM
      1 O           5.0980   -2.3226    0.0000 O.3     1  UNL1       -0.3912
      2 O           6.0502    2.2565    0.0000 O.3     1  UNL1       -0.3912
      3 C           4.4192   -0.6811    0.0000 C.3     1  UNL1        0.0007
      4 C           3.4954   -0.2984    0.0000 C.3     1  UNL1       -0.0278
      5 C           4.4192    1.9321    0.0000 C.3     1  UNL1       -0.0055
      6 C           2.8517   -1.0560    0.0000 C.3     1  UNL1       -0.0291
      7 C           4.0532    0.6255    0.0000 C.3     1  UNL1       -0.0370
      8 C           4.3387   -1.6719    0.0000 C.3     1  UNL1        0.0616
      9 C           5.3431   -0.2984    0.0000 C.3     1  UNL1       -0.0424
     10 C           3.1127    0.6255    0.0000 C.3     1  UNL1       -0.0486
     11 C           3.3719   -1.9031    0.0000 C.3     1  UNL1       -0.0209
     12 C           3.4954    1.5494    0.0000 C.3     1  UNL1       -0.0450
     13 C           5.3431    1.5494    0.0000 C.3     1  UNL1        0.0606
     14 C           5.7258    0.6255    0.0000 C.3     1  UNL1       -0.0258
     15 C           4.4192    2.9321    0.0000 C.3     1  UNL1       -0.0572
     16 C           2.0000   -1.5799    0.0000 C.3     1  UNL1       -0.0595
     17 C           2.0902   -0.4078    0.0000 C.3     1  UNL1       -0.0595
     18 H           2.7101    0.0269    0.0000 H       1  UNL1        0.0312
     19 H           3.5467    0.9830    0.0000 H       1  UNL1        0.0278
     20 H           4.6732    0.6255    0.0000 H       1  UNL1        0.0278
     21 H           4.1932   -2.2746    0.0000 H       1  UNL1        0.0599
     22 H           5.4241   -0.9131    0.0000 H       1  UNL1        0.0272
     23 H           5.9578   -0.3793    0.0000 H       1  UNL1        0.0272
     24 H           2.6208    1.0029    0.0000 H       1  UNL1        0.0268
     25 H           2.6208    0.2481    0.0000 H       1  UNL1        0.0268
     26 H           2.8124   -2.1702    0.0000 H       1  UNL1        0.0295
     27 H           3.5787   -2.4876    0.0000 H       1  UNL1        0.0295
     28 H           3.4144    2.1641    0.0000 H       1  UNL1        0.0271
     29 H           2.8807    1.6303    0.0000 H       1  UNL1        0.0271
     30 H           5.9512    1.4284    0.0000 H       1  UNL1        0.0599
     31 H           6.2177    0.2481    0.0000 H       1  UNL1        0.0290
     32 H           6.2177    1.0029    0.0000 H       1  UNL1        0.0290
     33 H           5.0392    2.9321    0.0000 H       1  UNL1        0.0236
     34 H           4.4192    3.5521    0.0000 H       1  UNL1        0.0236
     35 H           3.7992    2.9321    0.0000 H       1  UNL1        0.0236
     36 H           1.6751   -1.0519    0.0000 H       1  UNL1        0.0235
     37 H           1.4719   -1.9048    0.0000 H       1  UNL1        0.0235
     38 H           2.3249   -2.1080    0.0000 H       1  UNL1        0.0235
     39 H           2.4920    0.0643    0.0000 H       1  UNL1        0.0235
     40 H           1.6181   -0.0060    0.0000 H       1  UNL1        0.0235
     41 H           1.6884   -0.8800    0.0000 H       1  UNL1        0.0235
     42 H           4.9839   -2.9321    0.0000 H       1  UNL1        0.2098
     43 H           6.6491    2.0960    0.0000 H       1  UNL1        0.2098
@<TRIPOS>BOND
     1     8     1    1
     2     1    42    1
     3    13     2    1
     4     2    43    1
     5     3     4    1
     6     3     7    1
     7     3     8    1
     8     3     9    1
     9     4     6    1
    10     4    10    1
    11     4    18    1
    12     5     7    1
    13     5    12    1
    14     5    13    1
    15     5    15    1
    16     6    11    1
    17     6    16    1
    18     6    17    1
    19     7    19    1
    20     7    20    1
    21     8    11    1
    22     8    21    1
    23     9    14    1
    24     9    22    1
    25     9    23    1
    26    10    12    1
    27    10    24    1
    28    10    25    1
    29    11    26    1
    30    11    27    1
    31    12    28    1
    32    12    29    1
    33    13    14    1
    34    13    30    1
    35    14    31    1
    36    14    32    1
    37    15    33    1
    38    15    34    1
    39    15    35    1
    40    16    36    1
    41    16    37    1
    42    16    38    1
    43    17    39    1
    44    17    40    1
    45    17    41    1
