@<TRIPOS>MOLECULE
IMPHY014426
 35 35 0 0 0
SMALL
GASTEIGER

@<TRIPOS>ATOM
      1 I           2.9278    0.0000    0.0000 I       1  UNL1        0.0000
      2 N           4.8150    7.0283    0.0000 N.4     2  UNL2        0.2371
      3 N           3.2152    3.3116    0.0000 N.ar    2  UNL2       -0.3604
      4 C           4.5044    6.0778    0.0000 C.3     2  UNL2       -0.0267
      5 C           3.5259    5.8716    0.0000 C.3     2  UNL2        0.0147
      6 C           5.1257    7.9788    0.0000 C.3     2  UNL2       -0.0418
      7 C           5.7656    6.7176    0.0000 C.3     2  UNL2       -0.0418
      8 C           3.8645    7.3390    0.0000 C.3     2  UNL2       -0.0418
      9 C           3.2152    4.9210    0.0000 C.ar    2  UNL2       -0.0173
     10 C           2.2690    4.6163    0.0000 C.ar    2  UNL2        0.0030
     11 C           3.7988    4.1163    0.0000 C.ar    2  UNL2        0.0061
     12 C           2.2690    3.6163    0.0000 C.ar    2  UNL2        0.0467
     13 C           1.4030    5.1163    0.0000 C.ar    2  UNL2       -0.0523
     14 C           1.4030    3.1163    0.0000 C.ar    2  UNL2       -0.0378
     15 C           0.5369    4.6163    0.0000 C.ar    2  UNL2       -0.0611
     16 C           0.5369    3.6163    0.0000 C.ar    2  UNL2       -0.0598
     17 H           4.5249    5.4581    0.0000 H       2  UNL2        0.0818
     18 H           5.1182    5.9904    0.0000 H       2  UNL2        0.0818
     19 H           3.5053    6.4912    0.0000 H       2  UNL2        0.0366
     20 H           2.9120    5.9589    0.0000 H       2  UNL2        0.0366
     21 H           5.7150    7.7862    0.0000 H       2  UNL2        0.0778
     22 H           5.3183    8.5681    0.0000 H       2  UNL2        0.0778
     23 H           4.5364    8.1714    0.0000 H       2  UNL2        0.0778
     24 H           5.5729    6.1283    0.0000 H       2  UNL2        0.0778
     25 H           6.3549    6.5250    0.0000 H       2  UNL2        0.0778
     26 H           5.9582    7.3070    0.0000 H       2  UNL2        0.0778
     27 H           4.0571    7.9283    0.0000 H       2  UNL2        0.0778
     28 H           3.2752    7.5316    0.0000 H       2  UNL2        0.0778
     29 H           3.6719    6.7496    0.0000 H       2  UNL2        0.0778
     30 H           4.4188    4.1163    0.0000 H       2  UNL2        0.0810
     31 H           3.4078    2.7222    0.0000 H       2  UNL2        0.1653
     32 H           1.4030    5.7363    0.0000 H       2  UNL2        0.0624
     33 H           1.4030    2.4963    0.0000 H       2  UNL2        0.0638
     34 H           0.0000    4.9263    0.0000 H       2  UNL2        0.0618
     35 H           0.0000    3.3063    0.0000 H       2  UNL2        0.0618
@<TRIPOS>UNITY_ATOM_ATTR
1 1
charge -1
2 1
charge 1
@<TRIPOS>BOND
     1     2     4    1
     2     2     6    1
     3     2     7    1
     4     2     8    1
     5     3    11   ar
     6     3    12   ar
     7     3    31    1
     8     4     5    1
     9     4    17    1
    10     4    18    1
    11     5     9    1
    12     5    19    1
    13     5    20    1
    14     6    21    1
    15     6    22    1
    16     6    23    1
    17     7    24    1
    18     7    25    1
    19     7    26    1
    20     8    27    1
    21     8    28    1
    22     8    29    1
    23     9    10   ar
    24     9    11   ar
    25    10    12   ar
    26    10    13   ar
    27    11    30    1
    28    12    14   ar
    29    13    15   ar
    30    13    32    1
    31    14    16   ar
    32    14    33    1
    33    15    16   ar
    34    15    34    1
    35    16    35    1
