@<TRIPOS>MOLECULE
IMPHY016567
 33 32 0 0 0
SMALL
GASTEIGER

@<TRIPOS>ATOM
      1 O           6.3301    0.0000    0.0000 O.3     1  UNL1       -0.4643
      2 O           5.4641   -1.5000    0.0000 O.2     1  UNL1       -0.2509
      3 C           3.7320   -0.5000    0.0000 C.3     1  UNL1       -0.0432
      4 C           4.5981    0.0000    0.0000 C.3     1  UNL1        0.0449
      5 C           2.8660    0.0000    0.0000 C.3     1  UNL1       -0.0554
      6 C           5.4641   -0.5000    0.0000 C.2     1  UNL1        0.3071
      7 C           8.0622    0.0000    0.0000 C.3     1  UNL1       -0.0003
      8 C           7.1962   -0.5000    0.0000 C.3     1  UNL1        0.0959
      9 C           2.0000   -0.5000    0.0000 C.3     1  UNL1       -0.0653
     10 C           8.9282   -0.5000    0.0000 C.2     1  UNL1       -0.0847
     11 C           9.7942   -0.0000    0.0000 C.2     1  UNL1       -0.0881
     12 C           9.7942    1.0000    0.0000 C.3     1  UNL1       -0.0376
     13 C          10.6603    1.5000    0.0000 C.3     1  UNL1       -0.0618
     14 H           3.3335   -0.9749    0.0000 H       1  UNL1        0.0270
     15 H           4.1306   -0.9749    0.0000 H       1  UNL1        0.0270
     16 H           4.9966    0.4749    0.0000 H       1  UNL1        0.0377
     17 H           4.1996    0.4749    0.0000 H       1  UNL1        0.0377
     18 H           3.2646    0.4749    0.0000 H       1  UNL1        0.0263
     19 H           2.4675    0.4749    0.0000 H       1  UNL1        0.0263
     20 H           8.4607    0.4749    0.0000 H       1  UNL1        0.0340
     21 H           7.6636    0.4749    0.0000 H       1  UNL1        0.0340
     22 H           6.7976   -0.9749    0.0000 H       1  UNL1        0.0700
     23 H           7.5947   -0.9749    0.0000 H       1  UNL1        0.0700
     24 H           1.6900    0.0369    0.0000 H       1  UNL1        0.0230
     25 H           1.4631   -0.8100    0.0000 H       1  UNL1        0.0230
     26 H           2.3100   -1.0369    0.0000 H       1  UNL1        0.0230
     27 H           8.9282   -1.1200    0.0000 H       1  UNL1        0.0570
     28 H          10.3312   -0.3100    0.0000 H       1  UNL1        0.0569
     29 H           9.5822    1.5826    0.0000 H       1  UNL1        0.0305
     30 H           9.1836    0.8923    0.0000 H       1  UNL1        0.0305
     31 H          10.9703    0.9631    0.0000 H       1  UNL1        0.0233
     32 H          11.1972    1.8100    0.0000 H       1  UNL1        0.0233
     33 H          10.3503    2.0369    0.0000 H       1  UNL1        0.0233
@<TRIPOS>BOND
     1     1     6    1
     2     1     8    1
     3     2     6    2
     4     3     4    1
     5     3     5    1
     6     3    14    1
     7     3    15    1
     8     4     6    1
     9     4    16    1
    10     4    17    1
    11     5     9    1
    12     5    18    1
    13     5    19    1
    14     7     8    1
    15     7    10    1
    16     7    20    1
    17     7    21    1
    18     8    22    1
    19     8    23    1
    20     9    24    1
    21     9    25    1
    22     9    26    1
    23    10    11    2
    24    10    27    1
    25    11    12    1
    26    11    28    1
    27    12    13    1
    28    12    29    1
    29    12    30    1
    30    13    31    1
    31    13    32    1
    32    13    33    1
