@<TRIPOS>MOLECULE
IMPHY002480
 80 84 0 0 0
SMALL
GASTEIGER

@<TRIPOS>ATOM
      1 O           2.0000   -1.8922    0.0000 O.2     1  UNL1       -0.2967
      2 O           3.8143   -3.6701    0.0000 O.3     1  UNL1       -0.3940
      3 C           6.5271   -0.3398    0.0000 C.3     1  UNL1       -0.0194
      4 C           5.6610    0.1601    0.0000 C.3     1  UNL1       -0.0257
      5 C           7.3931    0.1601    0.0000 C.3     1  UNL1       -0.0051
      6 C           4.7510   -0.3467    0.0000 C.3     1  UNL1       -0.0243
      7 C           4.7430   -1.3883    0.0000 C.3     1  UNL1       -0.0211
      8 C           6.5431   -1.3814    0.0000 C.3     1  UNL1       -0.0463
      9 C           7.3931    1.1602    0.0000 C.2     1  UNL1       -0.0634
     10 C           8.2870    1.6948    0.0000 C.3     1  UNL1       -0.0135
     11 C           9.1931    1.1810    0.0000 C.3     1  UNL1       -0.0255
     12 C           5.6451   -1.9091    0.0000 C.3     1  UNL1       -0.0482
     13 C           8.2870   -0.3745    0.0000 C.3     1  UNL1       -0.0429
     14 C           5.6610    1.1602    0.0000 C.3     1  UNL1       -0.0306
     15 C           3.8076   -1.9380    0.0000 C.3     1  UNL1        0.0525
     16 C           9.1931    0.1393    0.0000 C.3     1  UNL1       -0.0463
     17 C           3.8242    0.2174    0.0000 C.3     1  UNL1       -0.0404
     18 C           7.1698   -1.1059    0.0000 C.3     1  UNL1       -0.0585
     19 C           6.5271    1.6602    0.0000 C.2     1  UNL1       -0.0836
     20 C           7.7352   -0.7795    0.0000 C.3     1  UNL1       -0.0553
     21 C           8.2619    2.7795    0.0000 C.3     1  UNL1       -0.0408
     22 C           4.7587    0.6533    0.0000 C.3     1  UNL1       -0.0590
     23 C          10.1369    1.7162    0.0000 C.3     1  UNL1       -0.0466
     24 C           9.1931    3.3364    0.0000 C.3     1  UNL1       -0.0343
     25 C           2.8763   -0.3106    0.0000 C.3     1  UNL1        0.0070
     26 C          10.1369    2.8012    0.0000 C.3     1  UNL1       -0.0473
     27 C           2.8680   -1.3955    0.0000 C.2     1  UNL1        0.1417
     28 C          10.0629    0.6877    0.0000 C.3     1  UNL1       -0.0590
     29 C           3.3109   -2.8060    0.0000 C.3     1  UNL1        0.0565
     30 C           4.3109   -2.8021    0.0000 C.3     1  UNL1       -0.0504
     31 C           9.6830    4.2082    0.0000 C.3     1  UNL1       -0.0598
     32 C           8.6831    4.1966    0.0000 C.3     1  UNL1       -0.0598
     33 H           6.3972    0.5851    0.0000 H       1  UNL1        0.0315
     34 H           4.7463   -2.2383    0.0000 H       1  UNL1        0.0316
     35 H           6.7612   -1.9618    0.0000 H       1  UNL1        0.0271
     36 H           7.1523   -1.2659    0.0000 H       1  UNL1        0.0271
     37 H           9.0165    2.1311    0.0000 H       1  UNL1        0.0351
     38 H           5.2478   -2.3851    0.0000 H       1  UNL1        0.0269
     39 H           6.0460   -2.3820    0.0000 H       1  UNL1        0.0269
     40 H           7.8824   -0.8443    0.0000 H       1  UNL1        0.0274
     41 H           8.6806   -0.8535    0.0000 H       1  UNL1        0.0274
     42 H           5.4490    1.7428    0.0000 H       1  UNL1        0.0310
     43 H           5.0504    1.0525    0.0000 H       1  UNL1        0.0310
     44 H           9.4022   -0.4444    0.0000 H       1  UNL1        0.0271
     45 H           9.8040    0.2454    0.0000 H       1  UNL1        0.0271
     46 H           4.2324    0.6840    0.0000 H       1  UNL1        0.0275
     47 H           3.4343    0.6994    0.0000 H       1  UNL1        0.0275
     48 H           6.6949   -1.5044    0.0000 H       1  UNL1        0.0235
     49 H           7.5684   -1.5808    0.0000 H       1  UNL1        0.0235
     50 H           7.6448   -0.7074    0.0000 H       1  UNL1        0.0235
     51 H           6.5271    2.2802    0.0000 H       1  UNL1        0.0572
     52 H           7.1526   -0.9916    0.0000 H       1  UNL1        0.0238
     53 H           7.9473   -1.3621    0.0000 H       1  UNL1        0.0238
     54 H           8.3178   -0.5674    0.0000 H       1  UNL1        0.0238
     55 H           8.0394    3.3582    0.0000 H       1  UNL1        0.0276
     56 H           7.6537    2.6593    0.0000 H       1  UNL1        0.0276
     57 H           5.3787    0.6485    0.0000 H       1  UNL1        0.0235
     58 H           4.7635    1.2733    0.0000 H       1  UNL1        0.0235
     59 H           4.1388    0.6581    0.0000 H       1  UNL1        0.0235
     60 H          10.3459    1.1325    0.0000 H       1  UNL1        0.0271
     61 H          10.7477    1.8223    0.0000 H       1  UNL1        0.0271
     62 H           2.6718    0.2747    0.0000 H       1  UNL1        0.0342
     63 H           2.2647   -0.4119    0.0000 H       1  UNL1        0.0342
     64 H          10.7477    2.6951    0.0000 H       1  UNL1        0.0271
     65 H          10.3459    3.3849    0.0000 H       1  UNL1        0.0271
     66 H           9.7571    0.1483    0.0000 H       1  UNL1        0.0235
     67 H          10.6023    0.3818    0.0000 H       1  UNL1        0.0235
     68 H          10.3688    1.2270    0.0000 H       1  UNL1        0.0235
     69 H           2.8344   -2.4093    0.0000 H       1  UNL1        0.0567
     70 H           2.8375   -3.2063    0.0000 H       1  UNL1        0.0567
     71 H           3.7752   -3.1142    0.0000 H       1  UNL1        0.0240
     72 H           4.6230   -3.3378    0.0000 H       1  UNL1        0.0240
     73 H           4.8466   -2.4900    0.0000 H       1  UNL1        0.0240
     74 H          10.2235    3.9044    0.0000 H       1  UNL1        0.0235
     75 H           9.9868    4.7487    0.0000 H       1  UNL1        0.0235
     76 H           9.1426    4.5120    0.0000 H       1  UNL1        0.0235
     77 H           9.2164    4.5128    0.0000 H       1  UNL1        0.0235
     78 H           8.3669    4.7299    0.0000 H       1  UNL1        0.0235
     79 H           8.1498    3.8804    0.0000 H       1  UNL1        0.0235
     80 H           3.5063   -4.2082    0.0000 H       1  UNL1        0.2094
@<TRIPOS>BOND
     1     1    27    2
     2     2    29    1
     3     2    80    1
     4     3     4    1
     5     3     5    1
     6     3     8    1
     7     3    18    1
     8     4     6    1
     9     4    14    1
    10     4    33    1
    11     5     9    1
    12     5    13    1
    13     5    20    1
    14     6     7    1
    15     6    17    1
    16     6    22    1
    17     7    12    1
    18     7    15    1
    19     7    34    1
    20     8    12    1
    21     8    35    1
    22     8    36    1
    23     9    10    1
    24     9    19    2
    25    10    11    1
    26    10    21    1
    27    10    37    1
    28    11    16    1
    29    11    23    1
    30    11    28    1
    31    12    38    1
    32    12    39    1
    33    13    16    1
    34    13    40    1
    35    13    41    1
    36    14    19    1
    37    14    42    1
    38    14    43    1
    39    15    27    1
    40    15    29    1
    41    15    30    1
    42    16    44    1
    43    16    45    1
    44    17    25    1
    45    17    46    1
    46    17    47    1
    47    18    48    1
    48    18    49    1
    49    18    50    1
    50    19    51    1
    51    20    52    1
    52    20    53    1
    53    20    54    1
    54    21    24    1
    55    21    55    1
    56    21    56    1
    57    22    57    1
    58    22    58    1
    59    22    59    1
    60    23    26    1
    61    23    60    1
    62    23    61    1
    63    24    26    1
    64    24    31    1
    65    24    32    1
    66    25    27    1
    67    25    62    1
    68    25    63    1
    69    26    64    1
    70    26    65    1
    71    28    66    1
    72    28    67    1
    73    28    68    1
    74    29    69    1
    75    29    70    1
    76    30    71    1
    77    30    72    1
    78    30    73    1
    79    31    74    1
    80    31    75    1
    81    31    76    1
    82    32    77    1
    83    32    78    1
    84    32    79    1
