@<TRIPOS>MOLECULE
IMPHY008017
 38 39 0 0 0
SMALL
GASTEIGER

@<TRIPOS>ATOM
      1 O           4.5981   -0.2500    0.0000 O.2     1  UNL1       -0.4244
      2 O           5.4641    1.2500    0.0000 O.3     1  UNL1       -0.4670
      3 O           2.0000    1.2500    0.0000 O.2     1  UNL1       -0.2872
      4 C           3.7320    2.2500    0.0000 C.3     1  UNL1        0.0182
      5 C           3.7320    1.2500    0.0000 C.ar    1  UNL1        0.0886
      6 C           4.7320    2.2500    0.0000 C.3     1  UNL1       -0.0520
      7 C           2.7320    2.2500    0.0000 C.3     1  UNL1       -0.0520
      8 C           3.7320    3.2500    0.0000 C.2     1  UNL1       -0.0808
      9 C           4.5981    0.7500    0.0000 C.ar    1  UNL1        0.2944
     10 C           2.8660    0.7500    0.0000 C.ar    1  UNL1        0.1931
     11 C           3.7320   -0.7500    0.0000 C.ar    1  UNL1        0.1426
     12 C           2.8660   -0.2500    0.0000 C.ar    1  UNL1        0.0286
     13 C           3.7320   -1.7500    0.0000 C.ar    1  UNL1        0.0175
     14 C           2.8660    3.7500    0.0000 C.2     1  UNL1       -0.1018
     15 C           2.8660   -2.2500    0.0000 C.ar    1  UNL1       -0.0511
     16 C           4.5981   -2.2500    0.0000 C.ar    1  UNL1       -0.0511
     17 C           6.3301    0.7500    0.0000 C.3     1  UNL1        0.0819
     18 C           2.8660   -3.2500    0.0000 C.ar    1  UNL1       -0.0611
     19 C           4.5981   -3.2500    0.0000 C.ar    1  UNL1       -0.0611
     20 C           3.7320   -3.7500    0.0000 C.ar    1  UNL1       -0.0617
     21 H           2.7320    2.8700    0.0000 H       1  UNL1        0.0241
     22 H           2.1120    2.2500    0.0000 H       1  UNL1        0.0241
     23 H           2.7320    1.6300    0.0000 H       1  UNL1        0.0241
     24 H           4.7320    1.6300    0.0000 H       1  UNL1        0.0241
     25 H           5.3520    2.2500    0.0000 H       1  UNL1        0.0241
     26 H           4.7320    2.8700    0.0000 H       1  UNL1        0.0241
     27 H           4.2690    3.5600    0.0000 H       1  UNL1        0.0575
     28 H           2.3291   -0.5600    0.0000 H       1  UNL1        0.0693
     29 H           2.8660    4.3700    0.0000 H       1  UNL1        0.0532
     30 H           2.3291    3.4400    0.0000 H       1  UNL1        0.0532
     31 H           2.3291   -1.9400    0.0000 H       1  UNL1        0.0625
     32 H           5.1350   -1.9400    0.0000 H       1  UNL1        0.0625
     33 H           6.0201    0.2131    0.0000 H       1  UNL1        0.0661
     34 H           6.8671    0.4400    0.0000 H       1  UNL1        0.0661
     35 H           6.6401    1.2869    0.0000 H       1  UNL1        0.0661
     36 H           2.3291   -3.5600    0.0000 H       1  UNL1        0.0618
     37 H           5.1350   -3.5600    0.0000 H       1  UNL1        0.0618
     38 H           3.7320   -4.3700    0.0000 H       1  UNL1        0.0618
@<TRIPOS>BOND
     1     1     9   ar
     2     1    11   ar
     3     2     9    1
     4     2    17    1
     5     3    10    2
     6     4     5    1
     7     4     6    1
     8     4     7    1
     9     4     8    1
    10     5     9   ar
    11     5    10   ar
    12     6    24    1
    13     6    25    1
    14     6    26    1
    15     7    21    1
    16     7    22    1
    17     7    23    1
    18     8    14    2
    19     8    27    1
    20    10    12   ar
    21    11    12   ar
    22    11    13    1
    23    12    28    1
    24    13    15   ar
    25    13    16   ar
    26    14    29    1
    27    14    30    1
    28    15    18   ar
    29    15    31    1
    30    16    19   ar
    31    16    32    1
    32    17    33    1
    33    17    34    1
    34    17    35    1
    35    18    20   ar
    36    18    36    1
    37    19    20   ar
    38    19    37    1
    39    20    38    1
