@<TRIPOS>MOLECULE
IMPHY012148
 23 23 0 0 0
SMALL
GASTEIGER

@<TRIPOS>ATOM
      1 O           2.8660   -0.0600    0.0000 O.3     1  UNL1       -0.4942
      2 O           6.3301   -0.0600    0.0000 O.3     1  UNL1       -0.4942
      3 O           5.4641    1.4400    0.0000 O.3     1  UNL1       -0.4770
      4 O           3.7320    1.4400    0.0000 O.2     1  UNL1       -0.2449
      5 C           4.5981   -0.0600    0.0000 C.ar    1  UNL1        0.1417
      6 C           3.7320   -0.5600    0.0000 C.ar    1  UNL1        0.1376
      7 C           5.4641   -0.5600    0.0000 C.ar    1  UNL1        0.1376
      8 C           3.7320   -1.5600    0.0000 C.ar    1  UNL1       -0.0189
      9 C           5.4641   -1.5600    0.0000 C.ar    1  UNL1       -0.0189
     10 C           4.5981   -2.0600    0.0000 C.ar    1  UNL1       -0.0548
     11 C           4.5981    0.9400    0.0000 C.2     1  UNL1        0.3440
     12 C           2.0000   -0.5600    0.0000 C.3     1  UNL1        0.0788
     13 C           7.1962   -0.5600    0.0000 C.3     1  UNL1        0.0788
     14 H           3.1951   -1.8700    0.0000 H       1  UNL1        0.0654
     15 H           6.0010   -1.8700    0.0000 H       1  UNL1        0.0654
     16 H           4.5981   -2.6800    0.0000 H       1  UNL1        0.0620
     17 H           1.6900   -0.0231    0.0000 H       1  UNL1        0.0660
     18 H           1.4631   -0.8700    0.0000 H       1  UNL1        0.0660
     19 H           2.3100   -1.0969    0.0000 H       1  UNL1        0.0660
     20 H           6.8862   -1.0969    0.0000 H       1  UNL1        0.0660
     21 H           7.7331   -0.8700    0.0000 H       1  UNL1        0.0660
     22 H           7.5062   -0.0231    0.0000 H       1  UNL1        0.0660
     23 H           5.4641    2.0600    0.0000 H       1  UNL1        0.2954
@<TRIPOS>BOND
     1     1     6    1
     2     1    12    1
     3     2     7    1
     4     2    13    1
     5     3    11    1
     6     3    23    1
     7     4    11    2
     8     5     6   ar
     9     5     7   ar
    10     5    11    1
    11     6     8   ar
    12     7     9   ar
    13     8    10   ar
    14     8    14    1
    15     9    10   ar
    16     9    15    1
    17    10    16    1
    18    12    17    1
    19    12    18    1
    20    12    19    1
    21    13    20    1
    22    13    21    1
    23    13    22    1
