@<TRIPOS>MOLECULE
IMPHY003896
 29 30 0 0 0
SMALL
GASTEIGER

@<TRIPOS>ATOM
      1 O           2.5369    2.0000    0.0000 O.3     1  UNL1       -0.3907
      2 N           6.0010    0.0000    0.0000 N.pl3   1  UNL1       -0.3238
      3 N           7.8133   -1.1953    0.0000 N.ar    1  UNL1       -0.3404
      4 N           5.1350   -1.5000    0.0000 N.ar    1  UNL1       -0.2187
      5 N           7.8133   -2.8047    0.0000 N.ar    1  UNL1       -0.2164
      6 N           6.0010   -3.0000    0.0000 N.ar    1  UNL1       -0.2144
      7 C           6.8671   -1.5000    0.0000 C.ar    1  UNL1        0.1253
      8 C           5.1350    0.5000    0.0000 C.3     1  UNL1        0.0291
      9 C           6.0010   -1.0000    0.0000 C.ar    1  UNL1        0.1479
     10 C           5.1350    1.5000    0.0000 C.2     1  UNL1       -0.0660
     11 C           6.8671   -2.5000    0.0000 C.ar    1  UNL1        0.1825
     12 C           4.2690    2.0000    0.0000 C.2     1  UNL1       -0.0500
     13 C           3.4030    1.5000    0.0000 C.3     1  UNL1        0.0651
     14 C           8.3969   -2.0000    0.0000 C.ar    1  UNL1        0.0963
     15 C           4.2690    3.0000    0.0000 C.3     1  UNL1       -0.0416
     16 C           5.1350   -2.5000    0.0000 C.ar    1  UNL1        0.1205
     17 H           4.5244    0.6077    0.0000 H       1  UNL1        0.0505
     18 H           4.9230   -0.0826    0.0000 H       1  UNL1        0.0505
     19 H           6.5380    0.3100    0.0000 H       1  UNL1        0.1478
     20 H           5.6720    1.8100    0.0000 H       1  UNL1        0.0588
     21 H           8.0059   -0.6059    0.0000 H       1  UNL1        0.1669
     22 H           3.0044    1.0250    0.0000 H       1  UNL1        0.0604
     23 H           3.8015    1.0250    0.0000 H       1  UNL1        0.0604
     24 H           9.0169   -2.0000    0.0000 H       1  UNL1        0.1027
     25 H           4.8890    3.0000    0.0000 H       1  UNL1        0.0275
     26 H           4.2690    3.6200    0.0000 H       1  UNL1        0.0275
     27 H           3.6490    3.0000    0.0000 H       1  UNL1        0.0275
     28 H           4.5981   -2.8100    0.0000 H       1  UNL1        0.1048
     29 H           2.0000    1.6900    0.0000 H       1  UNL1        0.2098
@<TRIPOS>BOND
     1     1    13    1
     2     1    29    1
     3     2     8    1
     4     2     9    1
     5     2    19    1
     6     3     7   ar
     7     3    14   ar
     8     3    21    1
     9     4     9   ar
    10     4    16   ar
    11     5    11   ar
    12     5    14   ar
    13     6    11   ar
    14     6    16   ar
    15     7     9   ar
    16     7    11   ar
    17     8    10    1
    18     8    17    1
    19     8    18    1
    20    10    12    2
    21    10    20    1
    22    12    13    1
    23    12    15    1
    24    13    22    1
    25    13    23    1
    26    14    24    1
    27    15    25    1
    28    15    26    1
    29    15    27    1
    30    16    28    1
