@<TRIPOS>MOLECULE
IMPHY017023
 45 44 0 0 0
SMALL
GASTEIGER

@<TRIPOS>ATOM
      1 O           8.0622   -0.2500    0.0000 O.3     1  UNL1       -0.3798
      2 C          10.6603    0.2500    0.0000 C.3     1  UNL1       -0.0510
      3 C           5.4641    0.2500    0.0000 C.3     1  UNL1       -0.0510
      4 C          11.5263   -0.2500    0.0000 C.3     1  UNL1       -0.0530
      5 C           4.5981   -0.2500    0.0000 C.3     1  UNL1       -0.0530
      6 C           9.7942   -0.2500    0.0000 C.3     1  UNL1       -0.0295
      7 C           6.3301   -0.2500    0.0000 C.3     1  UNL1       -0.0295
      8 C          12.3923    0.2500    0.0000 C.3     1  UNL1       -0.0533
      9 C           3.7320    0.2500    0.0000 C.3     1  UNL1       -0.0533
     10 C           8.9282    0.2500    0.0000 C.3     1  UNL1        0.0477
     11 C           7.1962    0.2500    0.0000 C.3     1  UNL1        0.0477
     12 C          13.2583   -0.2500    0.0000 C.3     1  UNL1       -0.0559
     13 C           2.8660   -0.2500    0.0000 C.3     1  UNL1       -0.0559
     14 C          14.1244    0.2500    0.0000 C.3     1  UNL1       -0.0653
     15 C           2.0000    0.2500    0.0000 C.3     1  UNL1       -0.0653
     16 H          11.0588    0.7249    0.0000 H       1  UNL1        0.0266
     17 H          10.2617    0.7249    0.0000 H       1  UNL1        0.0266
     18 H           5.8626    0.7249    0.0000 H       1  UNL1        0.0266
     19 H           5.0656    0.7249    0.0000 H       1  UNL1        0.0266
     20 H          11.1278   -0.7249    0.0000 H       1  UNL1        0.0265
     21 H          11.9248   -0.7249    0.0000 H       1  UNL1        0.0265
     22 H           4.1996   -0.7249    0.0000 H       1  UNL1        0.0265
     23 H           4.9966   -0.7249    0.0000 H       1  UNL1        0.0265
     24 H           9.3957   -0.7249    0.0000 H       1  UNL1        0.0287
     25 H          10.1928   -0.7249    0.0000 H       1  UNL1        0.0287
     26 H           5.9316   -0.7249    0.0000 H       1  UNL1        0.0287
     27 H           6.7287   -0.7249    0.0000 H       1  UNL1        0.0287
     28 H          12.7908    0.7249    0.0000 H       1  UNL1        0.0265
     29 H          11.9938    0.7249    0.0000 H       1  UNL1        0.0265
     30 H           4.1306    0.7249    0.0000 H       1  UNL1        0.0265
     31 H           3.3335    0.7249    0.0000 H       1  UNL1        0.0265
     32 H           9.3267    0.7249    0.0000 H       1  UNL1        0.0560
     33 H           8.5297    0.7249    0.0000 H       1  UNL1        0.0560
     34 H           7.5947    0.7249    0.0000 H       1  UNL1        0.0560
     35 H           6.7976    0.7249    0.0000 H       1  UNL1        0.0560
     36 H          12.8598   -0.7249    0.0000 H       1  UNL1        0.0263
     37 H          13.6569   -0.7249    0.0000 H       1  UNL1        0.0263
     38 H           2.4675   -0.7249    0.0000 H       1  UNL1        0.0263
     39 H           3.2646   -0.7249    0.0000 H       1  UNL1        0.0263
     40 H          14.4344   -0.2869    0.0000 H       1  UNL1        0.0230
     41 H          14.6613    0.5600    0.0000 H       1  UNL1        0.0230
     42 H          13.8144    0.7869    0.0000 H       1  UNL1        0.0230
     43 H           2.3100    0.7869    0.0000 H       1  UNL1        0.0230
     44 H           1.4631    0.5600    0.0000 H       1  UNL1        0.0230
     45 H           1.6900   -0.2869    0.0000 H       1  UNL1        0.0230
@<TRIPOS>BOND
     1     1    10    1
     2     1    11    1
     3     2     4    1
     4     2     6    1
     5     2    16    1
     6     2    17    1
     7     3     5    1
     8     3     7    1
     9     3    18    1
    10     3    19    1
    11     4     8    1
    12     4    20    1
    13     4    21    1
    14     5     9    1
    15     5    22    1
    16     5    23    1
    17     6    10    1
    18     6    24    1
    19     6    25    1
    20     7    11    1
    21     7    26    1
    22     7    27    1
    23     8    12    1
    24     8    28    1
    25     8    29    1
    26     9    13    1
    27     9    30    1
    28     9    31    1
    29    10    32    1
    30    10    33    1
    31    11    34    1
    32    11    35    1
    33    12    14    1
    34    12    36    1
    35    12    37    1
    36    13    15    1
    37    13    38    1
    38    13    39    1
    39    14    40    1
    40    14    41    1
    41    14    42    1
    42    15    43    1
    43    15    44    1
    44    15    45    1
