@<TRIPOS>MOLECULE
IMPHY009174
 42 45 0 0 0
SMALL
GASTEIGER

@<TRIPOS>ATOM
      1 O           9.8882    1.4517    0.0000 O.3     1  UNL1       -0.4780
      2 O           5.5301   -2.0829    0.0000 O.2     1  UNL1       -0.4618
      3 O           8.1282    2.4171    0.0000 O.3     1  UNL1       -0.5033
      4 O           5.5301    0.9171    0.0000 O.2     1  UNL1       -0.2863
      5 O           3.7817    0.9517    0.0000 O.3     1  UNL1       -0.5058
      6 O           2.0000   -2.1071    0.0000 O.3     1  UNL1       -0.5065
      7 C          10.7942    0.9379    0.0000 C.3     1  UNL1        0.1237
      8 C           8.9942   -0.0829    0.0000 C.ar    1  UNL1        0.0208
      9 C           8.9942    0.9171    0.0000 C.ar    1  UNL1        0.1700
     10 C          10.7942   -0.1037    0.0000 C.2     1  UNL1       -0.0409
     11 C          11.7942    0.9417    0.0000 C.3     1  UNL1       -0.0215
     12 C          11.2909    1.8058    0.0000 C.3     1  UNL1       -0.0215
     13 C           9.8882   -0.6176    0.0000 C.2     1  UNL1       -0.0512
     14 C           7.2622   -0.0829    0.0000 C.ar    1  UNL1       -0.0070
     15 C           8.1282   -0.5829    0.0000 C.ar    1  UNL1       -0.0429
     16 C           8.1282    1.4171    0.0000 C.ar    1  UNL1        0.1597
     17 C           6.3961   -0.5829    0.0000 C.ar    1  UNL1        0.0645
     18 C           7.2622    0.9171    0.0000 C.ar    1  UNL1       -0.0086
     19 C           5.5301   -0.0829    0.0000 C.ar    1  UNL1        0.2037
     20 C           4.6641   -0.5829    0.0000 C.ar    1  UNL1        0.1060
     21 C           4.6641   -1.5829    0.0000 C.ar    1  UNL1        0.1454
     22 C           6.3961   -1.5829    0.0000 C.ar    1  UNL1        0.1038
     23 C           3.7702   -0.0483    0.0000 C.ar    1  UNL1        0.1347
     24 C           3.7702   -2.1176    0.0000 C.ar    1  UNL1        0.0231
     25 C           2.8641   -0.5621    0.0000 C.ar    1  UNL1        0.0223
     26 C           2.8641   -1.6037    0.0000 C.ar    1  UNL1        0.1239
     27 H          11.3300   -0.4158    0.0000 H       1  UNL1        0.0611
     28 H          11.7966    0.3217    0.0000 H       1  UNL1        0.0271
     29 H          12.4142    0.9441    0.0000 H       1  UNL1        0.0271
     30 H          11.8290    1.4979    0.0000 H       1  UNL1        0.0271
     31 H          11.5988    2.3440    0.0000 H       1  UNL1        0.0271
     32 H          10.7528    2.1138    0.0000 H       1  UNL1        0.0271
     33 H          11.7918    1.5617    0.0000 H       1  UNL1        0.0271
     34 H           9.8810   -1.2376    0.0000 H       1  UNL1        0.0623
     35 H           8.1282   -1.2029    0.0000 H       1  UNL1        0.0631
     36 H           6.7252    1.2271    0.0000 H       1  UNL1        0.0661
     37 H           6.9331   -1.8929    0.0000 H       1  UNL1        0.1037
     38 H           3.7773   -2.7376    0.0000 H       1  UNL1        0.0691
     39 H           7.5913    2.7271    0.0000 H       1  UNL1        0.2923
     40 H           2.3284   -0.2500    0.0000 H       1  UNL1        0.0691
     41 H           3.2484    1.2679    0.0000 H       1  UNL1        0.2922
     42 H           2.0024   -2.7271    0.0000 H       1  UNL1        0.2921
@<TRIPOS>BOND
     1     1     7    1
     2     1     9    1
     3     2    21   ar
     4     2    22   ar
     5     3    16    1
     6     3    39    1
     7     4    19    2
     8     5    23    1
     9     5    41    1
    10     6    26    1
    11     6    42    1
    12     7    10    1
    13     7    11    1
    14     7    12    1
    15     8     9   ar
    16     8    13    1
    17     8    15   ar
    18     9    16   ar
    19    10    13    2
    20    10    27    1
    21    11    28    1
    22    11    29    1
    23    11    33    1
    24    12    30    1
    25    12    31    1
    26    12    32    1
    27    13    34    1
    28    14    15   ar
    29    14    17    1
    30    14    18   ar
    31    15    35    1
    32    16    18   ar
    33    17    19   ar
    34    17    22   ar
    35    18    36    1
    36    19    20   ar
    37    20    21   ar
    38    20    23   ar
    39    21    24   ar
    40    22    37    1
    41    23    25   ar
    42    24    26   ar
    43    24    38    1
    44    25    26   ar
    45    25    40    1
