@<TRIPOS>MOLECULE
IMPHY000512
 32 33 0 0 0
SMALL
GASTEIGER

@<TRIPOS>ATOM
      1 C        2517.3200 2509.9800    0.0000 C.2     1  UNL1        0.0780
      2 C        2482.6800 2490.0200    0.0000 C.2     1  UNL1        0.0780
      3 C        2448.0400 2509.9800    0.0000 C.2     1  UNL1        0.0109
      4 C        2413.4000 2490.0200    0.0000 C.ar    1  UNL1        0.0006
      5 C        2413.4000 2450.0200    0.0000 C.ar    1  UNL1       -0.0008
      6 C        2378.6600 2429.9800    0.0000 C.ar    1  UNL1        0.0211
      7 C        2378.6600 2389.9800    0.0000 C.3     1  UNL1        0.0549
      8 C        2413.3000 2370.0200    0.0000 C.2     1  UNL1       -0.0298
      9 C        2447.9400 2389.9800    0.0000 C.2     1  UNL1       -0.0475
     10 C        2482.5800 2370.0200    0.0000 C.3     1  UNL1        0.0260
     11 C        2447.9400 2429.9800    0.0000 C.3     1  UNL1        0.0260
     12 C        2344.1200 2450.0200    0.0000 C.ar    1  UNL1        0.1920
     13 C        2344.1200 2490.0200    0.0000 C.ar    1  UNL1        0.0417
     14 C        2378.6600 2509.9800    0.0000 C.ar    1  UNL1        0.0033
     15 O        2309.4800 2429.9800    0.0000 O.3     1  UNL1       -0.2869
     16 C        2482.6800 2450.0200    0.0000 C.1     1  UNL1        0.1011
     17 N        2442.6800 2450.0200    0.0000 N.1     1  UNL1       -0.1908
     18 C        2551.9600 2490.0200    0.0000 C.2     1  UNL1        0.0109
     19 C        2586.6000 2509.9800    0.0000 C.ar    1  UNL1        0.0006
     20 C        2586.6000 2549.9800    0.0000 C.ar    1  UNL1       -0.0008
     21 C        2621.3400 2570.0200    0.0000 C.ar    1  UNL1        0.0211
     22 C        2621.3400 2610.0200    0.0000 C.3     1  UNL1        0.0549
     23 C        2586.7000 2629.9800    0.0000 C.2     1  UNL1       -0.0298
     24 C        2552.0600 2610.0200    0.0000 C.2     1  UNL1       -0.0475
     25 C        2517.4200 2629.9800    0.0000 C.3     1  UNL1        0.0260
     26 C        2552.0600 2570.0200    0.0000 C.3     1  UNL1        0.0260
     27 C        2655.8800 2549.9800    0.0000 C.ar    1  UNL1        0.1920
     28 C        2655.8800 2509.9800    0.0000 C.ar    1  UNL1        0.0417
     29 C        2621.3400 2490.0200    0.0000 C.ar    1  UNL1        0.0033
     30 O        2690.5200 2570.0200    0.0000 O.3     1  UNL1       -0.2869
     31 C        2517.3200 2549.9800    0.0000 C.1     1  UNL1        0.1011
     32 N        2557.3200 2549.9800    0.0000 N.1     1  UNL1       -0.1908
@<TRIPOS>BOND
     1     1     2    1
     2     1    18    2
     3     1    31    1
     4     2     3    2
     5     2    16    1
     6     3     4    1
     7     4     5   ar
     8     4    14   ar
     9     5     6   ar
    10     6     7    1
    11     6    12   ar
    12     7     8    1
    13     8     9    2
    14     9    10    1
    15     9    11    1
    16    12    15    1
    17    13    12   ar
    18    14    13   ar
    19    16    17    3
    20    18    19    1
    21    19    20   ar
    22    19    29   ar
    23    20    21   ar
    24    21    22    1
    25    21    27   ar
    26    22    23    1
    27    23    24    2
    28    24    25    1
    29    24    26    1
    30    27    30    1
    31    28    27   ar
    32    29    28   ar
    33    31    32    3
