@<TRIPOS>MOLECULE
IMPHY012656
 30 31 0 0 0
SMALL
GASTEIGER

@<TRIPOS>ATOM
      1 O           2.5369   -1.2500    0.0000 O.3     1  UNL1       -0.5061
      2 O           6.8671    0.2500    0.0000 O.3     1  UNL1       -0.5062
      3 O           3.4030    0.2500    0.0000 O.2     1  UNL1       -0.2872
      4 C           4.2690   -1.2500    0.0000 C.ar    1  UNL1        0.0630
      5 C           6.0010    1.7500    0.0000 C.ar    1  UNL1        0.0165
      6 C           4.2690   -0.2500    0.0000 C.2     1  UNL1        0.1896
      7 C           5.1350    1.2500    0.0000 C.2     1  UNL1       -0.0475
      8 C           3.4030   -1.7500    0.0000 C.ar    1  UNL1        0.1276
      9 C           6.8671    1.2500    0.0000 C.ar    1  UNL1        0.1240
     10 C           5.1350    0.2500    0.0000 C.2     1  UNL1       -0.0136
     11 C           5.1350   -1.7500    0.0000 C.ar    1  UNL1       -0.0474
     12 C           6.0010    2.7500    0.0000 C.ar    1  UNL1       -0.0511
     13 C           3.4030   -2.7500    0.0000 C.ar    1  UNL1       -0.0195
     14 C           7.7331    1.7500    0.0000 C.ar    1  UNL1       -0.0196
     15 C           5.1350   -2.7500    0.0000 C.ar    1  UNL1       -0.0609
     16 C           6.8671    3.2500    0.0000 C.ar    1  UNL1       -0.0610
     17 C           4.2690   -3.2500    0.0000 C.ar    1  UNL1       -0.0583
     18 C           7.7331    2.7500    0.0000 C.ar    1  UNL1       -0.0583
     19 H           4.5981    1.5600    0.0000 H       1  UNL1        0.0626
     20 H           5.6720   -0.0600    0.0000 H       1  UNL1        0.0656
     21 H           5.6720   -1.4400    0.0000 H       1  UNL1        0.0626
     22 H           5.4641    3.0600    0.0000 H       1  UNL1        0.0625
     23 H           2.8660   -3.0600    0.0000 H       1  UNL1        0.0654
     24 H           8.2700    1.4400    0.0000 H       1  UNL1        0.0654
     25 H           5.6720   -3.0600    0.0000 H       1  UNL1        0.0618
     26 H           6.8671    3.8700    0.0000 H       1  UNL1        0.0618
     27 H           4.2690   -3.8700    0.0000 H       1  UNL1        0.0619
     28 H           8.2700    3.0600    0.0000 H       1  UNL1        0.0619
     29 H           2.0000   -1.5600    0.0000 H       1  UNL1        0.2922
     30 H           7.4040   -0.0600    0.0000 H       1  UNL1        0.2922
@<TRIPOS>BOND
     1     1     8    1
     2     1    29    1
     3     2     9    1
     4     2    30    1
     5     3     6    2
     6     4     6    1
     7     4     8   ar
     8     4    11   ar
     9     5     7    1
    10     5     9   ar
    11     5    12   ar
    12     6    10    1
    13     7    10    2
    14     7    19    1
    15     8    13   ar
    16     9    14   ar
    17    10    20    1
    18    11    15   ar
    19    11    21    1
    20    12    16   ar
    21    12    22    1
    22    13    17   ar
    23    13    23    1
    24    14    18   ar
    25    14    24    1
    26    15    17   ar
    27    15    25    1
    28    16    18   ar
    29    16    26    1
    30    17    27    1
    31    18    28    1
