@<TRIPOS>MOLECULE
IMPHY014011
 39 42 0 0 0
SMALL
GASTEIGER

@<TRIPOS>ATOM
      1 O           6.4144    1.8592    0.0000 O.3     1  UNL1       -0.5056
      2 O           8.1962   -1.1995    0.0000 O.3     1  UNL1       -0.5063
      3 O           4.6660    1.8246    0.0000 O.2     1  UNL1       -0.2865
      4 O           4.6660   -2.1754    0.0000 O.2     1  UNL1       -0.2866
      5 C           5.5321    0.3246    0.0000 C.ar    1  UNL1        0.0749
      6 C           5.5321   -0.6754    0.0000 C.ar    1  UNL1        0.0401
      7 C           7.3321    0.3454    0.0000 C.ar    1  UNL1        0.0404
      8 C           6.4260    0.8593    0.0000 C.ar    1  UNL1        0.1353
      9 C           8.1962    0.8488    0.0000 C.3     1  UNL1        0.0045
     10 C           3.8000    0.3246    0.0000 C.ar    1  UNL1        0.0332
     11 C           3.8000   -0.6754    0.0000 C.ar    1  UNL1        0.0331
     12 C           4.6660    0.8246    0.0000 C.2     1  UNL1        0.1980
     13 C           4.6660   -1.1754    0.0000 C.2     1  UNL1        0.1947
     14 C           7.3321   -0.6962    0.0000 C.ar    1  UNL1        0.1245
     15 C           6.4260   -1.2100    0.0000 C.ar    1  UNL1       -0.0082
     16 C           9.0641    0.3521    0.0000 C.ar    1  UNL1       -0.0428
     17 C           2.9061    0.8593    0.0000 C.ar    1  UNL1       -0.0502
     18 C           2.9061   -1.2100    0.0000 C.ar    1  UNL1       -0.0502
     19 C           2.0000    0.3454    0.0000 C.ar    1  UNL1       -0.0610
     20 C           2.0000   -0.6962    0.0000 C.ar    1  UNL1       -0.0610
     21 C           9.0680   -0.6479    0.0000 C.ar    1  UNL1       -0.0583
     22 C           9.9282    0.8554    0.0000 C.ar    1  UNL1       -0.0583
     23 C           9.9359   -1.1446    0.0000 C.ar    1  UNL1       -0.0615
     24 C          10.7961    0.3588    0.0000 C.ar    1  UNL1       -0.0615
     25 C          10.8000   -0.6412    0.0000 C.ar    1  UNL1       -0.0617
     26 H           8.5929    1.3252    0.0000 H       1  UNL1        0.0364
     27 H           7.7958    1.3222    0.0000 H       1  UNL1        0.0364
     28 H           6.4188   -1.8300    0.0000 H       1  UNL1        0.0661
     29 H           2.9132    1.4792    0.0000 H       1  UNL1        0.0625
     30 H           2.9132   -1.8300    0.0000 H       1  UNL1        0.0625
     31 H           1.4643    0.6575    0.0000 H       1  UNL1        0.0618
     32 H           1.4643   -1.0083    0.0000 H       1  UNL1        0.0618
     33 H           8.5322   -0.9600    0.0000 H       1  UNL1        0.0620
     34 H           9.9258    1.4754    0.0000 H       1  UNL1        0.0620
     35 H           6.9478    2.1754    0.0000 H       1  UNL1        0.2922
     36 H           8.1938   -1.8195    0.0000 H       1  UNL1        0.2921
     37 H           9.9383   -1.7646    0.0000 H       1  UNL1        0.0618
     38 H          11.3319    0.6708    0.0000 H       1  UNL1        0.0618
     39 H          11.3381   -0.9491    0.0000 H       1  UNL1        0.0618
@<TRIPOS>BOND
     1     1     8    1
     2     1    35    1
     3     2    14    1
     4     2    36    1
     5     3    12    2
     6     4    13    2
     7     5     6   ar
     8     5     8   ar
     9     5    12    1
    10     6    13    1
    11     6    15   ar
    12     7     8   ar
    13     7     9    1
    14     7    14   ar
    15     9    16    1
    16     9    26    1
    17     9    27    1
    18    10    11   ar
    19    10    12    1
    20    10    17   ar
    21    11    13    1
    22    11    18   ar
    23    14    15   ar
    24    15    28    1
    25    16    21   ar
    26    16    22   ar
    27    17    19   ar
    28    17    29    1
    29    18    20   ar
    30    18    30    1
    31    19    20   ar
    32    19    31    1
    33    20    32    1
    34    21    23   ar
    35    21    33    1
    36    22    24   ar
    37    22    34    1
    38    23    25   ar
    39    23    37    1
    40    24    25   ar
    41    24    38    1
    42    25    39    1
