@<TRIPOS>MOLECULE
IMPHY016754
 24 23 0 0 0
SMALL
GASTEIGER

@<TRIPOS>ATOM
      1 S           5.4641   -0.2500    0.0000 S.3     1  UNL1       -0.0811
      2 S           4.5981    0.2500    0.0000 S.3     1  UNL1       -0.0129
      3 S           3.7320   -0.2500    0.0000 S.3     1  UNL1       -0.0132
      4 S           2.8660    0.2500    0.0000 S.3     1  UNL1       -0.0845
      5 C           8.0622    0.2500    0.0000 C.3     1  UNL1       -0.0525
      6 C           7.1962   -0.2500    0.0000 C.3     1  UNL1       -0.0432
      7 C           8.9282   -0.2500    0.0000 C.3     1  UNL1       -0.0559
      8 C           6.3301    0.2500    0.0000 C.3     1  UNL1        0.0047
      9 C           9.7942    0.2500    0.0000 C.3     1  UNL1       -0.0653
     10 C           2.0000   -0.2500    0.0000 C.3     1  UNL1       -0.0070
     11 H           8.4607    0.7249    0.0000 H       1  UNL1        0.0265
     12 H           7.6636    0.7249    0.0000 H       1  UNL1        0.0265
     13 H           6.7976   -0.7249    0.0000 H       1  UNL1        0.0273
     14 H           7.5947   -0.7249    0.0000 H       1  UNL1        0.0273
     15 H           8.5297   -0.7249    0.0000 H       1  UNL1        0.0263
     16 H           9.3267   -0.7249    0.0000 H       1  UNL1        0.0263
     17 H           6.7287    0.7249    0.0000 H       1  UNL1        0.0385
     18 H           5.9316    0.7249    0.0000 H       1  UNL1        0.0385
     19 H          10.1042   -0.2869    0.0000 H       1  UNL1        0.0230
     20 H          10.3312    0.5600    0.0000 H       1  UNL1        0.0230
     21 H           9.4842    0.7869    0.0000 H       1  UNL1        0.0230
     22 H           1.6900    0.2869    0.0000 H       1  UNL1        0.0349
     23 H           1.4631   -0.5600    0.0000 H       1  UNL1        0.0349
     24 H           2.3100   -0.7869    0.0000 H       1  UNL1        0.0349
@<TRIPOS>BOND
     1     1     2    1
     2     1     8    1
     3     2     3    1
     4     3     4    1
     5     4    10    1
     6     5     6    1
     7     5     7    1
     8     5    11    1
     9     5    12    1
    10     6     8    1
    11     6    13    1
    12     6    14    1
    13     7     9    1
    14     7    15    1
    15     7    16    1
    16     8    17    1
    17     8    18    1
    18     9    19    1
    19     9    20    1
    20     9    21    1
    21    10    22    1
    22    10    23    1
    23    10    24    1
