@<TRIPOS>MOLECULE
IMPHY017630
 35 34 0 0 0
SMALL
GASTEIGER

@<TRIPOS>ATOM
      1 O           7.1962    1.7500    0.0000 O.3     1  UNL1       -0.3851
      2 O           2.8660   -0.7500    0.0000 O.3     1  UNL1       -0.4639
      3 O           3.7320   -2.2500    0.0000 O.2     1  UNL1       -0.2512
      4 C           3.7320    0.7500    0.0000 C.3     1  UNL1        0.0320
      5 C           6.3301    1.2500    0.0000 C.3     1  UNL1        0.0786
      6 C           4.5981    1.2500    0.0000 C.2     1  UNL1       -0.0750
      7 C           5.4641    0.7500    0.0000 C.2     1  UNL1       -0.0566
      8 C           3.7320   -0.2500    0.0000 C.3     1  UNL1        0.1023
      9 C           2.8660    1.2500    0.0000 C.2     1  UNL1       -0.0697
     10 C           6.8301    0.3840    0.0000 C.3     1  UNL1       -0.0327
     11 C           5.8301    2.1160    0.0000 C.3     1  UNL1       -0.0327
     12 C           2.0000    0.7500    0.0000 C.3     1  UNL1       -0.0434
     13 C           2.8660    2.2500    0.0000 C.2     1  UNL1       -0.0990
     14 C           2.8660   -1.7500    0.0000 C.2     1  UNL1        0.3040
     15 C           2.0000   -2.2500    0.0000 C.3     1  UNL1        0.0332
     16 H           3.7320    1.3700    0.0000 H       1  UNL1        0.0421
     17 H           4.5981    1.8700    0.0000 H       1  UNL1        0.0577
     18 H           5.4641    0.1300    0.0000 H       1  UNL1        0.0597
     19 H           3.9441   -0.8326    0.0000 H       1  UNL1        0.0706
     20 H           4.3426   -0.1423    0.0000 H       1  UNL1        0.0706
     21 H           6.2932    0.0740    0.0000 H       1  UNL1        0.0260
     22 H           7.1401   -0.1530    0.0000 H       1  UNL1        0.0260
     23 H           7.3671    0.6940    0.0000 H       1  UNL1        0.0260
     24 H           6.3671    2.4260    0.0000 H       1  UNL1        0.0260
     25 H           5.5201    2.6530    0.0000 H       1  UNL1        0.0260
     26 H           5.2932    1.8060    0.0000 H       1  UNL1        0.0260
     27 H           1.6900    1.2869    0.0000 H       1  UNL1        0.0274
     28 H           1.4631    0.4400    0.0000 H       1  UNL1        0.0274
     29 H           2.3100    0.2131    0.0000 H       1  UNL1        0.0274
     30 H           7.7331    1.4400    0.0000 H       1  UNL1        0.2106
     31 H           3.4030    2.5600    0.0000 H       1  UNL1        0.0535
     32 H           2.3291    2.5600    0.0000 H       1  UNL1        0.0535
     33 H           1.6900   -1.7131    0.0000 H       1  UNL1        0.0342
     34 H           1.4631   -2.5600    0.0000 H       1  UNL1        0.0342
     35 H           2.3100   -2.7869    0.0000 H       1  UNL1        0.0342
@<TRIPOS>BOND
     1     1     5    1
     2     1    30    1
     3     2     8    1
     4     2    14    1
     5     3    14    2
     6     4     6    1
     7     4     8    1
     8     4     9    1
     9     4    16    1
    10     5     7    1
    11     5    10    1
    12     5    11    1
    13     6     7    2
    14     6    17    1
    15     7    18    1
    16     8    19    1
    17     8    20    1
    18     9    12    1
    19     9    13    2
    20    10    21    1
    21    10    22    1
    22    10    23    1
    23    11    24    1
    24    11    25    1
    25    11    26    1
    26    12    27    1
    27    12    28    1
    28    12    29    1
    29    13    31    1
    30    13    32    1
    31    14    15    1
    32    15    33    1
    33    15    34    1
    34    15    35    1
