@<TRIPOS>MOLECULE
IMPHY015892
 27 27 0 0 0
SMALL
GASTEIGER

@<TRIPOS>ATOM
      1 O           3.7320   -1.5000    0.0000 O.3     1  UNL1       -0.4260
      2 O           2.0000   -1.5000    0.0000 O.2     1  UNL1       -0.2507
      3 C           3.7320    2.5000    0.0000 C.3     1  UNL1       -0.0215
      4 C           3.7320    1.5000    0.0000 C.ar    1  UNL1       -0.0446
      5 C           4.5981    3.0000    0.0000 C.3     1  UNL1       -0.0587
      6 C           2.8660    3.0000    0.0000 C.3     1  UNL1       -0.0587
      7 C           4.5981    1.0000    0.0000 C.ar    1  UNL1       -0.0549
      8 C           2.8660    1.0000    0.0000 C.ar    1  UNL1       -0.0549
      9 C           4.5981   -0.0000    0.0000 C.ar    1  UNL1       -0.0190
     10 C           2.8660    0.0000    0.0000 C.ar    1  UNL1       -0.0190
     11 C           3.7320   -0.5000    0.0000 C.ar    1  UNL1        0.1316
     12 C           2.8660   -2.0000    0.0000 C.2     1  UNL1        0.3092
     13 C           2.8660   -3.0000    0.0000 C.3     1  UNL1        0.0336
     14 H           3.7320    3.1200    0.0000 H       1  UNL1        0.0343
     15 H           4.9081    2.4631    0.0000 H       1  UNL1        0.0235
     16 H           5.1350    3.3100    0.0000 H       1  UNL1        0.0235
     17 H           4.2881    3.5369    0.0000 H       1  UNL1        0.0235
     18 H           3.1760    3.5369    0.0000 H       1  UNL1        0.0235
     19 H           2.3291    3.3100    0.0000 H       1  UNL1        0.0235
     20 H           2.5560    2.4631    0.0000 H       1  UNL1        0.0235
     21 H           5.1350    1.3100    0.0000 H       1  UNL1        0.0622
     22 H           2.3291    1.3100    0.0000 H       1  UNL1        0.0622
     23 H           5.1350   -0.3100    0.0000 H       1  UNL1        0.0654
     24 H           2.3291   -0.3100    0.0000 H       1  UNL1        0.0654
     25 H           2.2460   -3.0000    0.0000 H       1  UNL1        0.0342
     26 H           2.8660   -3.6200    0.0000 H       1  UNL1        0.0342
     27 H           3.4860   -3.0000    0.0000 H       1  UNL1        0.0342
@<TRIPOS>BOND
     1     1    11    1
     2     1    12    1
     3     2    12    2
     4     3     4    1
     5     3     5    1
     6     3     6    1
     7     3    14    1
     8     4     7   ar
     9     4     8   ar
    10     5    15    1
    11     5    16    1
    12     5    17    1
    13     6    18    1
    14     6    19    1
    15     6    20    1
    16     7     9   ar
    17     7    21    1
    18     8    10   ar
    19     8    22    1
    20     9    11   ar
    21     9    23    1
    22    10    11   ar
    23    10    24    1
    24    12    13    1
    25    13    25    1
    26    13    26    1
    27    13    27    1
