@<TRIPOS>MOLECULE
IMPHY007311
 56 58 0 0 0
SMALL
GASTEIGER

@<TRIPOS>ATOM
      1 O           6.0682   -3.7151    0.0000 O.2     1  UNL1       -0.4542
      2 O           9.5984   -1.6909    0.0000 O.3     1  UNL1       -0.4912
      3 O           6.0682   -0.7151    0.0000 O.2     1  UNL1       -0.2863
      4 O           9.5984   -3.7392    0.0000 O.3     1  UNL1       -0.5032
      5 O           4.3198   -0.6805    0.0000 O.3     1  UNL1       -0.5058
      6 O           2.5381   -3.7392    0.0000 O.3     1  UNL1       -0.5065
      7 C           7.8282   -1.6804    0.0000 C.ar    1  UNL1        0.0160
      8 C           6.9343   -2.2151    0.0000 C.ar    1  UNL1        0.0719
      9 C           7.8167   -0.6805    0.0000 C.3     1  UNL1       -0.0049
     10 C           6.9343   -3.2151    0.0000 C.ar    1  UNL1        0.1432
     11 C           8.7343   -2.1943    0.0000 C.ar    1  UNL1        0.1656
     12 C           6.0682   -1.7151    0.0000 C.ar    1  UNL1        0.2041
     13 C           5.2022   -2.2151    0.0000 C.ar    1  UNL1        0.1061
     14 C           8.6768   -0.1705    0.0000 C.2     1  UNL1       -0.0806
     15 C           8.6653    0.8294    0.0000 C.2     1  UNL1       -0.0759
     16 C           9.5255    1.3394    0.0000 C.3     1  UNL1       -0.0286
     17 C           5.2022   -3.2151    0.0000 C.ar    1  UNL1        0.1463
     18 C           7.8282   -3.7498    0.0000 C.ar    1  UNL1        0.0265
     19 C           8.7343   -3.2359    0.0000 C.ar    1  UNL1        0.1623
     20 C           9.5139    2.3393    0.0000 C.3     1  UNL1       -0.0308
     21 C           4.3083   -1.6804    0.0000 C.ar    1  UNL1        0.1347
     22 C           7.7935    1.3194    0.0000 C.3     1  UNL1       -0.0438
     23 C           4.3083   -3.7498    0.0000 C.ar    1  UNL1        0.0231
     24 C           3.4022   -2.1943    0.0000 C.ar    1  UNL1        0.0223
     25 C          10.3741    2.8493    0.0000 C.2     1  UNL1       -0.0850
     26 C           3.4022   -3.2359    0.0000 C.ar    1  UNL1        0.1239
     27 C          10.3625    3.8492    0.0000 C.2     1  UNL1       -0.0796
     28 C          10.4663   -2.1876    0.0000 C.3     1  UNL1        0.0790
     29 C          11.2227    4.3592    0.0000 C.3     1  UNL1       -0.0440
     30 C           9.4908    4.3392    0.0000 C.3     1  UNL1       -0.0440
     31 H           7.5979   -0.1004    0.0000 H       1  UNL1        0.0357
     32 H           7.2074   -0.7952    0.0000 H       1  UNL1        0.0357
     33 H           9.2173   -0.4743    0.0000 H       1  UNL1        0.0575
     34 H           9.7442    0.7593    0.0000 H       1  UNL1        0.0313
     35 H          10.1348    1.4541    0.0000 H       1  UNL1        0.0313
     36 H           7.8210   -4.3697    0.0000 H       1  UNL1        0.0692
     37 H           9.2951    2.9194    0.0000 H       1  UNL1        0.0310
     38 H           8.9046    2.2246    0.0000 H       1  UNL1        0.0310
     39 H           8.0973    1.8599    0.0000 H       1  UNL1        0.0274
     40 H           7.2530    1.6232    0.0000 H       1  UNL1        0.0274
     41 H           7.4898    0.7789    0.0000 H       1  UNL1        0.0274
     42 H           4.3154   -4.3697    0.0000 H       1  UNL1        0.0691
     43 H           2.8665   -1.8822    0.0000 H       1  UNL1        0.0691
     44 H          10.9146    2.5456    0.0000 H       1  UNL1        0.0572
     45 H           9.5960   -4.3592    0.0000 H       1  UNL1        0.2923
     46 H          10.1584   -2.7257    0.0000 H       1  UNL1        0.0660
     47 H          11.0045   -2.4955    0.0000 H       1  UNL1        0.0660
     48 H          10.7743   -1.6495    0.0000 H       1  UNL1        0.0660
     49 H           3.7865   -0.3643    0.0000 H       1  UNL1        0.2922
     50 H          11.5389    3.8259    0.0000 H       1  UNL1        0.0274
     51 H          11.7560    4.6754    0.0000 H       1  UNL1        0.0274
     52 H           9.7945    4.8797    0.0000 H       1  UNL1        0.0274
     53 H           8.9503    4.6430    0.0000 H       1  UNL1        0.0274
     54 H           9.1870    3.7987    0.0000 H       1  UNL1        0.0274
     55 H          10.9065    4.8926    0.0000 H       1  UNL1        0.0274
     56 H           2.0000   -3.4313    0.0000 H       1  UNL1        0.2921
@<TRIPOS>BOND
     1     1    10   ar
     2     1    17   ar
     3     2    11    1
     4     2    28    1
     5     3    12    2
     6     4    19    1
     7     4    45    1
     8     5    21    1
     9     5    49    1
    10     6    26    1
    11     6    56    1
    12     7     8   ar
    13     7     9    1
    14     7    11   ar
    15     8    10   ar
    16     8    12   ar
    17     9    14    1
    18     9    31    1
    19     9    32    1
    20    10    18   ar
    21    11    19   ar
    22    12    13   ar
    23    13    17   ar
    24    13    21   ar
    25    14    15    2
    26    14    33    1
    27    15    16    1
    28    15    22    1
    29    16    20    1
    30    16    34    1
    31    16    35    1
    32    17    23   ar
    33    18    19   ar
    34    18    36    1
    35    20    25    1
    36    20    37    1
    37    20    38    1
    38    21    24   ar
    39    22    39    1
    40    22    40    1
    41    22    41    1
    42    23    26   ar
    43    23    42    1
    44    24    26   ar
    45    24    43    1
    46    25    27    2
    47    25    44    1
    48    27    29    1
    49    27    30    1
    50    28    46    1
    51    28    47    1
    52    28    48    1
    53    29    50    1
    54    29    51    1
    55    29    55    1
    56    30    52    1
    57    30    53    1
    58    30    54    1
