@<TRIPOS>MOLECULE
IMPHY011717
 45 46 0 0 0
SMALL
GASTEIGER

@<TRIPOS>ATOM
      1 O           7.3849   -1.6996    0.0000 O.3     1  UNL1       -0.3886
      2 O           2.5369   -1.2932    0.0000 O.3     1  UNL1       -0.3888
      3 C           6.0010    0.7068    0.0000 C.3     1  UNL1       -0.0266
      4 C           6.0010   -0.2932    0.0000 C.3     1  UNL1       -0.0067
      5 C           6.8950   -0.8279    0.0000 C.3     1  UNL1        0.0666
      6 C           5.1350   -0.7932    0.0000 C.3     1  UNL1       -0.0417
      7 C           4.2690   -0.2932    0.0000 C.3     1  UNL1       -0.0123
      8 C           5.1350    1.2068    0.0000 C.3     1  UNL1       -0.0469
      9 C           6.8950    1.2414    0.0000 C.3     1  UNL1       -0.0472
     10 C           4.2690    0.7068    0.0000 C.3     1  UNL1       -0.0471
     11 C           7.8010   -0.3140    0.0000 C.3     1  UNL1       -0.0240
     12 C           7.8010    0.7276    0.0000 C.3     1  UNL1       -0.0500
     13 C           6.0010    1.7068    0.0000 C.3     1  UNL1       -0.0592
     14 C           3.4030   -0.7932    0.0000 C.3     1  UNL1        0.0633
     15 C           6.3850   -1.6881    0.0000 C.3     1  UNL1       -0.0358
     16 C           2.9030    0.0728    0.0000 C.3     1  UNL1       -0.0361
     17 C           3.9030   -1.6592    0.0000 C.3     1  UNL1       -0.0361
     18 H           5.9945   -1.1432    0.0000 H       1  UNL1        0.0334
     19 H           4.7365   -1.2682    0.0000 H       1  UNL1        0.0273
     20 H           5.5335   -1.2682    0.0000 H       1  UNL1        0.0273
     21 H           4.2690   -1.1432    0.0000 H       1  UNL1        0.0328
     22 H           5.5335    1.6817    0.0000 H       1  UNL1        0.0271
     23 H           4.7365    1.6817    0.0000 H       1  UNL1        0.0271
     24 H           7.2886    1.7205    0.0000 H       1  UNL1        0.0271
     25 H           6.4904    1.7112    0.0000 H       1  UNL1        0.0271
     26 H           4.0569    1.2894    0.0000 H       1  UNL1        0.0269
     27 H           3.6584    0.5991    0.0000 H       1  UNL1        0.0269
     28 H           8.0101   -0.8977    0.0000 H       1  UNL1        0.0293
     29 H           8.4119   -0.2079    0.0000 H       1  UNL1        0.0293
     30 H           8.4119    0.6215    0.0000 H       1  UNL1        0.0266
     31 H           8.0101    1.3113    0.0000 H       1  UNL1        0.0266
     32 H           6.6210    1.7068    0.0000 H       1  UNL1        0.0235
     33 H           6.0010    2.3268    0.0000 H       1  UNL1        0.0235
     34 H           5.3810    1.7068    0.0000 H       1  UNL1        0.0235
     35 H           5.8517   -1.3719    0.0000 H       1  UNL1        0.0257
     36 H           6.0688   -2.2214    0.0000 H       1  UNL1        0.0257
     37 H           6.9183   -2.0042    0.0000 H       1  UNL1        0.0257
     38 H           8.0049   -1.7068    0.0000 H       1  UNL1        0.2102
     39 H           3.4399    0.3828    0.0000 H       1  UNL1        0.0257
     40 H           2.5930    0.6098    0.0000 H       1  UNL1        0.0257
     41 H           2.3660   -0.2372    0.0000 H       1  UNL1        0.0257
     42 H           3.3660   -1.9692    0.0000 H       1  UNL1        0.0257
     43 H           4.2130   -2.1962    0.0000 H       1  UNL1        0.0257
     44 H           4.4399   -1.3492    0.0000 H       1  UNL1        0.0257
     45 H           2.0000   -0.9832    0.0000 H       1  UNL1        0.2101
@<TRIPOS>BOND
     1     5     1    1
     2     1    38    1
     3     2    14    1
     4     2    45    1
     5     3     4    1
     6     3     8    1
     7     3     9    1
     8     3    13    1
     9     4     5    1
    10     4     6    1
    11     4    18    1
    12     5    11    1
    13     5    15    1
    14     6     7    1
    15     6    19    1
    16     6    20    1
    17     7    10    1
    18     7    14    1
    19     7    21    1
    20     8    10    1
    21     8    22    1
    22     8    23    1
    23     9    12    1
    24     9    24    1
    25     9    25    1
    26    10    26    1
    27    10    27    1
    28    11    12    1
    29    11    28    1
    30    11    29    1
    31    12    30    1
    32    12    31    1
    33    13    32    1
    34    13    33    1
    35    13    34    1
    36    14    16    1
    37    14    17    1
    38    15    35    1
    39    15    36    1
    40    15    37    1
    41    16    39    1
    42    16    40    1
    43    16    41    1
    44    17    42    1
    45    17    43    1
    46    17    44    1
