@<TRIPOS>MOLECULE
IMPHY000852
 42 45 0 0 0
SMALL
GASTEIGER

@<TRIPOS>ATOM
      1 O           5.5440    1.2510    0.0000 O.3     1  UNL1       -0.4809
      2 O           4.6501   -1.2143    0.0000 O.3     1  UNL1       -0.4866
      3 O           3.7841    4.2857    0.0000 O.3     1  UNL1       -0.5061
      4 O           2.9059   -4.2836    0.0000 O.3     1  UNL1       -0.5066
      5 C           6.4501    1.7648    0.0000 C.3     1  UNL1        0.1235
      6 C           4.6501    1.7857    0.0000 C.ar    1  UNL1        0.1398
      7 C           3.7841    1.2857    0.0000 C.ar    1  UNL1        0.0239
      8 C           4.6501    2.7857    0.0000 C.ar    1  UNL1        0.0585
      9 C           6.4501    2.8065    0.0000 C.2     1  UNL1       -0.0408
     10 C           3.7841    0.2857    0.0000 C.2     1  UNL1        0.0009
     11 C           7.4501    1.7610    0.0000 C.3     1  UNL1       -0.0215
     12 C           6.9468    0.8969    0.0000 C.3     1  UNL1       -0.0215
     13 C           5.5440    3.3203    0.0000 C.2     1  UNL1       -0.0478
     14 C           4.6501   -0.2143    0.0000 C.3     1  UNL1        0.1153
     15 C           3.7841    3.2857    0.0000 C.ar    1  UNL1        0.1275
     16 C           2.9180    1.7857    0.0000 C.ar    1  UNL1       -0.0472
     17 C           2.9180   -0.2143    0.0000 C.2     1  UNL1       -0.0440
     18 C           2.9180   -1.2143    0.0000 C.ar    1  UNL1        0.0173
     19 C           2.9180    2.7857    0.0000 C.ar    1  UNL1       -0.0188
     20 C           3.7841   -1.7143    0.0000 C.ar    1  UNL1        0.1316
     21 C           2.0080   -1.7212    0.0000 C.ar    1  UNL1       -0.0476
     22 C           3.8001   -2.7558    0.0000 C.ar    1  UNL1        0.0221
     23 C           2.0000   -2.7628    0.0000 C.ar    1  UNL1       -0.0194
     24 C           2.9021   -3.2836    0.0000 C.ar    1  UNL1        0.1204
     25 H           6.9858    3.1185    0.0000 H       1  UNL1        0.0611
     26 H           7.4477    1.1410    0.0000 H       1  UNL1        0.0271
     27 H           6.4086    0.5890    0.0000 H       1  UNL1        0.0271
     28 H           7.2547    0.3588    0.0000 H       1  UNL1        0.0271
     29 H           7.4849    1.2048    0.0000 H       1  UNL1        0.0271
     30 H           8.0701    1.7586    0.0000 H       1  UNL1        0.0271
     31 H           7.4525    2.3810    0.0000 H       1  UNL1        0.0271
     32 H           5.5368    3.9403    0.0000 H       1  UNL1        0.0624
     33 H           5.2607   -0.3220    0.0000 H       1  UNL1        0.0748
     34 H           4.8621    0.3683    0.0000 H       1  UNL1        0.0748
     35 H           2.3811    1.4757    0.0000 H       1  UNL1        0.0626
     36 H           2.3811    0.0957    0.0000 H       1  UNL1        0.0629
     37 H           2.3811    3.0957    0.0000 H       1  UNL1        0.0654
     38 H           1.4747   -1.4050    0.0000 H       1  UNL1        0.0626
     39 H           4.3406   -3.0596    0.0000 H       1  UNL1        0.0691
     40 H           1.4619   -3.0707    0.0000 H       1  UNL1        0.0654
     41 H           3.2471    4.5957    0.0000 H       1  UNL1        0.2922
     42 H           2.3702   -4.5957    0.0000 H       1  UNL1        0.2921
@<TRIPOS>BOND
     1     1     5    1
     2     1     6    1
     3     2    14    1
     4     2    20    1
     5     3    15    1
     6     3    41    1
     7     4    24    1
     8     4    42    1
     9     5     9    1
    10     5    11    1
    11     5    12    1
    12     6     7   ar
    13     6     8   ar
    14     7    10    1
    15     7    16   ar
    16     8    13    1
    17     8    15   ar
    18     9    13    2
    19     9    25    1
    20    10    14    1
    21    10    17    2
    22    11    26    1
    23    11    30    1
    24    11    31    1
    25    12    27    1
    26    12    28    1
    27    12    29    1
    28    13    32    1
    29    14    33    1
    30    14    34    1
    31    15    19   ar
    32    16    19   ar
    33    16    35    1
    34    17    18    1
    35    17    36    1
    36    18    20   ar
    37    18    21   ar
    38    19    37    1
    39    20    22   ar
    40    21    23   ar
    41    21    38    1
    42    22    24   ar
    43    22    39    1
    44    23    24   ar
    45    23    40    1
