@<TRIPOS>MOLECULE
IMPHY011927
 126 133 0 0 0
SMALL
GASTEIGER

@<TRIPOS>ATOM
      1 O           9.4982    3.9174    0.0000 O.3     1  UNL1       -0.3877
      2 O           7.7331   -1.2861    0.0000 O.3     1  UNL1       -0.3454
      3 O           5.8941    7.4311    0.0000 O.3     1  UNL1       -0.4571
      4 O           6.0010   -1.2861    0.0000 O.3     1  UNL1       -0.3431
      5 O           6.5292    9.0961    0.0000 O.2     1  UNL1       -0.2456
      6 O           7.7331   -3.2861    0.0000 O.3     1  UNL1       -0.3841
      7 O           6.0010   -4.2861    0.0000 O.3     1  UNL1       -0.3744
      8 O           4.2690   -3.2861    0.0000 O.3     1  UNL1       -0.3402
      9 O           5.1350   -4.7861    0.0000 O.3     1  UNL1       -0.3405
     10 O           2.5369   -4.2861    0.0000 O.3     1  UNL1       -0.3841
     11 O           2.5369   -6.2861    0.0000 O.3     1  UNL1       -0.3864
     12 O           4.2690   -7.2861    0.0000 O.3     1  UNL1       -0.3865
     13 O           6.8671   -5.7861    0.0000 O.3     1  UNL1       -0.3460
     14 O           8.5991   -5.7861    0.0000 O.3     1  UNL1       -0.3405
     15 O           6.8671   -7.7861    0.0000 O.3     1  UNL1       -0.3841
     16 O           8.5991   -8.7861    0.0000 O.3     1  UNL1       -0.3864
     17 O          10.3312   -7.7861    0.0000 O.3     1  UNL1       -0.3865
     18 O          10.3312   -4.7861    0.0000 O.3     1  UNL1       -0.3924
     19 C           8.6303    4.4141    0.0000 C.3     1  UNL1        0.0751
     20 C           8.6342    3.4141    0.0000 C.3     1  UNL1       -0.0083
     21 C           7.7701    2.9108    0.0000 C.3     1  UNL1       -0.0299
     22 C           7.7624    4.9108    0.0000 C.3     1  UNL1        0.0036
     23 C           7.7580    1.8692    0.0000 C.3     1  UNL1       -0.0259
     24 C           8.6581    1.3449    0.0000 C.3     1  UNL1       -0.0330
     25 C           6.9021    3.4074    0.0000 C.3     1  UNL1       -0.0488
     26 C           6.8983    4.4074    0.0000 C.3     1  UNL1       -0.0442
     27 C           7.9678    5.8834    0.0000 C.3     1  UNL1       -0.0081
     28 C           9.5461    2.9108    0.0000 C.3     1  UNL1       -0.0470
     29 C           9.3647    5.0840    0.0000 C.3     1  UNL1       -0.0226
     30 C           9.5581    1.8692    0.0000 C.3     1  UNL1       -0.0493
     31 C           8.9561    5.9902    0.0000 C.3     1  UNL1       -0.0432
     32 C           6.8081    1.3449    0.0000 C.3     1  UNL1       -0.0448
     33 C           8.6706    0.2600    0.0000 C.3     1  UNL1       -0.0232
     34 C           6.8944    5.4074    0.0000 C.3     1  UNL1       -0.0564
     35 C           6.8939    2.3725    0.0000 C.3     1  UNL1       -0.0590
     36 C           6.7956    0.2600    0.0000 C.3     1  UNL1       -0.0260
     37 C           7.7331   -0.2861    0.0000 C.3     1  UNL1        0.0621
     38 C           7.2971    6.6251    0.0000 C.2     1  UNL1       -0.0222
     39 C           6.3028    6.5184    0.0000 C.3     1  UNL1        0.1147
     40 C           7.5029    7.6037    0.0000 C.2     1  UNL1        0.0252
     41 C           6.8671   -1.7861    0.0000 C.3     1  UNL1        0.1881
     42 C           6.6358    8.1018    0.0000 C.2     1  UNL1        0.3323
     43 C           6.8671   -2.7861    0.0000 C.3     1  UNL1        0.1344
     44 C           6.0010   -3.2861    0.0000 C.3     1  UNL1        0.1174
     45 C           5.1350   -1.7861    0.0000 C.3     1  UNL1        0.0877
     46 C           5.1350   -2.7861    0.0000 C.3     1  UNL1        0.1162
     47 C           4.2690   -1.2861    0.0000 C.3     1  UNL1       -0.0360
     48 C           4.2690   -4.2861    0.0000 C.3     1  UNL1        0.1884
     49 C           6.8671   -4.7861    0.0000 C.3     1  UNL1        0.0370
     50 C           3.4030   -4.7861    0.0000 C.3     1  UNL1        0.1341
     51 C           3.4030   -5.7861    0.0000 C.3     1  UNL1        0.1141
     52 C           5.1350   -5.7861    0.0000 C.3     1  UNL1        0.1134
     53 C           4.2690   -6.2861    0.0000 C.3     1  UNL1        0.1119
     54 C           6.0010   -6.2861    0.0000 C.3     1  UNL1        0.0796
     55 C           7.7331   -6.2861    0.0000 C.3     1  UNL1        0.1880
     56 C           7.7331   -7.2861    0.0000 C.3     1  UNL1        0.1341
     57 C           8.5991   -7.7861    0.0000 C.3     1  UNL1        0.1141
     58 C           9.4651   -6.2861    0.0000 C.3     1  UNL1        0.1130
     59 C           9.4651   -7.2861    0.0000 C.3     1  UNL1        0.1119
     60 C          10.3312   -5.7861    0.0000 C.3     1  UNL1        0.0730
     61 H           9.3653    3.8476    0.0000 H       1  UNL1        0.0331
     62 H           8.5045    2.4829    0.0000 H       1  UNL1        0.0310
     63 H           9.3974    0.9256    0.0000 H       1  UNL1        0.0307
     64 H           6.2911    3.5127    0.0000 H       1  UNL1        0.0268
     65 H           6.6923    2.8240    0.0000 H       1  UNL1        0.0268
     66 H           6.6840    4.9892    0.0000 H       1  UNL1        0.0272
     67 H           6.2881    4.2974    0.0000 H       1  UNL1        0.0272
     68 H           8.1885    6.4628    0.0000 H       1  UNL1        0.0353
     69 H          10.1581    2.8117    0.0000 H       1  UNL1        0.0269
     70 H           9.7484    3.4968    0.0000 H       1  UNL1        0.0269
     71 H           9.7321    4.5846    0.0000 H       1  UNL1        0.0293
     72 H           9.9000    5.3968    0.0000 H       1  UNL1        0.0293
     73 H           9.7739    1.2880    0.0000 H       1  UNL1        0.0268
     74 H          10.1677    1.9824    0.0000 H       1  UNL1        0.0268
     75 H           9.5450    6.1843    0.0000 H       1  UNL1        0.0272
     76 H           8.8251    6.5962    0.0000 H       1  UNL1        0.0272
     77 H           6.6058    1.9310    0.0000 H       1  UNL1        0.0271
     78 H           6.1961    1.2459    0.0000 H       1  UNL1        0.0271
     79 H           8.8864   -0.3212    0.0000 H       1  UNL1        0.0293
     80 H           9.2802    0.3731    0.0000 H       1  UNL1        0.0293
     81 H           7.2023    5.9455    0.0000 H       1  UNL1        0.0236
     82 H           6.3563    5.7153    0.0000 H       1  UNL1        0.0236
     83 H           6.5865    4.8693    0.0000 H       1  UNL1        0.0236
     84 H           7.2060    2.9083    0.0000 H       1  UNL1        0.0235
     85 H           6.3582    2.6846    0.0000 H       1  UNL1        0.0235
     86 H           6.5818    1.8368    0.0000 H       1  UNL1        0.0235
     87 H           6.1860    0.3731    0.0000 H       1  UNL1        0.0290
     88 H           6.5798   -0.3212    0.0000 H       1  UNL1        0.0290
     89 H           8.2706   -0.5951    0.0000 H       1  UNL1        0.0597
     90 H          10.0340    4.2295    0.0000 H       1  UNL1        0.2102
     91 H           5.7136    6.3256    0.0000 H       1  UNL1        0.0746
     92 H           6.4330    5.9123    0.0000 H       1  UNL1        0.0746
     93 H           8.0688    7.8570    0.0000 H       1  UNL1        0.0689
     94 H           7.4040   -2.0961    0.0000 H       1  UNL1        0.0937
     95 H           6.8671   -3.4061    0.0000 H       1  UNL1        0.0671
     96 H           5.4641   -3.5961    0.0000 H       1  UNL1        0.0650
     97 H           5.1350   -1.1661    0.0000 H       1  UNL1        0.0621
     98 H           4.5981   -2.4761    0.0000 H       1  UNL1        0.0650
     99 H           8.2700   -2.9761    0.0000 H       1  UNL1        0.2101
    100 H           4.5790   -0.7492    0.0000 H       1  UNL1        0.0255
    101 H           3.7320   -0.9761    0.0000 H       1  UNL1        0.0255
    102 H           3.9590   -1.8231    0.0000 H       1  UNL1        0.0255
    103 H           3.7320   -3.9761    0.0000 H       1  UNL1        0.0938
    104 H           6.5571   -5.3231    0.0000 H       1  UNL1        0.0524
    105 H           7.4040   -5.0961    0.0000 H       1  UNL1        0.0524
    106 H           7.1771   -4.2492    0.0000 H       1  UNL1        0.0524
    107 H           3.9650   -4.1661    0.0000 H       1  UNL1        0.0671
    108 H           3.4030   -6.4061    0.0000 H       1  UNL1        0.0648
    109 H           5.6720   -5.4761    0.0000 H       1  UNL1        0.0647
    110 H           4.8059   -6.5961    0.0000 H       1  UNL1        0.0647
    111 H           2.0000   -4.5961    0.0000 H       1  UNL1        0.2101
    112 H           5.6025   -6.7611    0.0000 H       1  UNL1        0.0587
    113 H           6.3996   -6.7611    0.0000 H       1  UNL1        0.0587
    114 H           2.5369   -6.9061    0.0000 H       1  UNL1        0.2100
    115 H           4.8059   -7.5961    0.0000 H       1  UNL1        0.2100
    116 H           7.7331   -5.6661    0.0000 H       1  UNL1        0.0937
    117 H           7.1962   -6.9761    0.0000 H       1  UNL1        0.0671
    118 H           8.0622   -8.0961    0.0000 H       1  UNL1        0.0648
    119 H          10.0021   -6.9761    0.0000 H       1  UNL1        0.0647
    120 H           9.4651   -5.6661    0.0000 H       1  UNL1        0.0647
    121 H          10.5432   -6.3687    0.0000 H       1  UNL1        0.0584
    122 H          10.9417   -5.6785    0.0000 H       1  UNL1        0.0584
    123 H           6.8671   -8.4061    0.0000 H       1  UNL1        0.2101
    124 H           9.1360   -9.0961    0.0000 H       1  UNL1        0.2100
    125 H          10.8681   -7.4761    0.0000 H       1  UNL1        0.2100
    126 H          10.8681   -4.4761    0.0000 H       1  UNL1        0.2095
@<TRIPOS>BOND
     1    19     1    1
     2     1    90    1
     3    37     2    1
     4    41     2    1
     5     3    39    1
     6     3    42    1
     7     4    41    1
     8     4    45    1
     9     5    42    2
    10    43     6    1
    11     6    99    1
    12    44     7    1
    13     7    49    1
    14    46     8    1
    15    48     8    1
    16     9    48    1
    17     9    52    1
    18    50    10    1
    19    10   111    1
    20    51    11    1
    21    11   114    1
    22    53    12    1
    23    12   115    1
    24    13    54    1
    25    55    13    1
    26    14    55    1
    27    14    58    1
    28    56    15    1
    29    15   123    1
    30    57    16    1
    31    16   124    1
    32    59    17    1
    33    17   125    1
    34    18    60    1
    35    18   126    1
    36    19    20    1
    37    19    22    1
    38    19    29    1
    39    20    21    1
    40    20    28    1
    41    20    61    1
    42    21    23    1
    43    21    25    1
    44    21    62    1
    45    22    26    1
    46    22    27    1
    47    22    34    1
    48    23    24    1
    49    23    32    1
    50    23    35    1
    51    24    30    1
    52    24    33    1
    53    24    63    1
    54    25    26    1
    55    25    64    1
    56    25    65    1
    57    26    66    1
    58    26    67    1
    59    27    31    1
    60    27    38    1
    61    27    68    1
    62    28    30    1
    63    28    69    1
    64    28    70    1
    65    29    31    1
    66    29    71    1
    67    29    72    1
    68    30    73    1
    69    30    74    1
    70    31    75    1
    71    31    76    1
    72    32    36    1
    73    32    77    1
    74    32    78    1
    75    33    37    1
    76    33    79    1
    77    33    80    1
    78    34    81    1
    79    34    82    1
    80    34    83    1
    81    35    84    1
    82    35    85    1
    83    35    86    1
    84    36    37    1
    85    36    87    1
    86    36    88    1
    87    37    89    1
    88    38    39    1
    89    38    40    2
    90    39    91    1
    91    39    92    1
    92    40    42    1
    93    40    93    1
    94    41    43    1
    95    41    94    1
    96    43    44    1
    97    43    95    1
    98    44    46    1
    99    44    96    1
   100    45    46    1
   101    45    47    1
   102    45    97    1
   103    46    98    1
   104    47   100    1
   105    47   101    1
   106    47   102    1
   107    48    50    1
   108    48   103    1
   109    49   104    1
   110    49   105    1
   111    49   106    1
   112    50    51    1
   113    50   107    1
   114    51    53    1
   115    51   108    1
   116    52    53    1
   117    52    54    1
   118    52   109    1
   119    53   110    1
   120    54   112    1
   121    54   113    1
   122    55    56    1
   123    55   116    1
   124    56    57    1
   125    56   117    1
   126    57    59    1
   127    57   118    1
   128    58    59    1
   129    58    60    1
   130    58   120    1
   131    59   119    1
   132    60   121    1
   133    60   122    1
