@<TRIPOS>MOLECULE
IMPHY008058
 43 47 0 0 0
SMALL
GASTEIGER

@<TRIPOS>ATOM
      1 O           9.3729   -2.9340    0.0000 O.3     1  UNL1       -0.4526
      2 O          10.8248   -2.0958    0.0000 O.3     1  UNL1       -0.4526
      3 O           4.6874    2.7252    0.0000 O.3     1  UNL1       -0.5028
      4 O           2.8680    1.6933    0.0000 O.3     1  UNL1       -0.4914
      5 N           7.4070    1.1475    0.0000 N.pl3   1  UNL1       -0.3475
      6 C           7.4070    0.1475    0.0000 C.2     1  UNL1        0.1590
      7 C           8.2730    1.6475    0.0000 C.3     1  UNL1        0.1158
      8 C           6.5130    1.6822    0.0000 C.2     1  UNL1        0.1256
      9 C           8.2730   -0.3525    0.0000 C.ar    1  UNL1        0.0513
     10 C           7.4070    2.1475    0.0000 C.3     1  UNL1        0.0859
     11 C           9.1390    0.1475    0.0000 C.ar    1  UNL1       -0.0063
     12 C           9.1390    1.1475    0.0000 C.2     1  UNL1       -0.0169
     13 C           6.5130   -0.3872    0.0000 C.2     1  UNL1        0.0127
     14 C           5.6070    1.1683    0.0000 C.ar    1  UNL1        0.0851
     15 C           5.6070    0.1267    0.0000 C.ar    1  UNL1       -0.0026
     16 C           8.2570   -1.3940    0.0000 C.ar    1  UNL1       -0.0024
     17 C          10.0490   -0.3593    0.0000 C.ar    1  UNL1       -0.0083
     18 C           4.6758    1.7252    0.0000 C.ar    1  UNL1        0.1718
     19 C           9.1550   -1.9218    0.0000 C.ar    1  UNL1        0.1670
     20 C          10.0571   -1.4009    0.0000 C.ar    1  UNL1        0.1668
     21 C           4.6758   -0.4302    0.0000 C.ar    1  UNL1       -0.0499
     22 C           3.7320    1.1900    0.0000 C.ar    1  UNL1        0.1621
     23 C           3.7320    0.1050    0.0000 C.ar    1  UNL1       -0.0157
     24 C          10.4028   -3.0414    0.0000 C.3     1  UNL1        0.2332
     25 C           2.0000    1.1967    0.0000 C.3     1  UNL1        0.0790
     26 H           8.6716    2.1225    0.0000 H       1  UNL1        0.1021
     27 H           7.8745    2.1225    0.0000 H       1  UNL1        0.1021
     28 H           6.5202    2.3021    0.0000 H       1  UNL1        0.1324
     29 H           8.0270    2.1475    0.0000 H       1  UNL1        0.0935
     30 H           7.4070    2.7675    0.0000 H       1  UNL1        0.0935
     31 H           6.7870    2.1475    0.0000 H       1  UNL1        0.0935
     32 H           9.6760    1.4575    0.0000 H       1  UNL1        0.0639
     33 H           6.5202   -1.0071    0.0000 H       1  UNL1        0.0688
     34 H           7.7165   -1.6978    0.0000 H       1  UNL1        0.0663
     35 H          10.5824   -0.0431    0.0000 H       1  UNL1        0.0661
     36 H           4.6830   -1.0502    0.0000 H       1  UNL1        0.0625
     37 H           3.1963   -0.2071    0.0000 H       1  UNL1        0.0655
     38 H          10.2741   -3.6479    0.0000 H       1  UNL1        0.1166
     39 H          10.9924   -3.2331    0.0000 H       1  UNL1        0.1166
     40 H           4.1541    3.0414    0.0000 H       1  UNL1        0.2923
     41 H           1.6921    1.7348    0.0000 H       1  UNL1        0.0660
     42 H           1.4619    0.8888    0.0000 H       1  UNL1        0.0660
     43 H           2.3079    0.6586    0.0000 H       1  UNL1        0.0660
@<TRIPOS>UNITY_ATOM_ATTR
5 1
charge 1
@<TRIPOS>BOND
     1     1    19    1
     2     1    24    1
     3     2    20    1
     4     2    24    1
     5     3    18    1
     6     3    40    1
     7     4    22    1
     8     4    25    1
     9     5     6    1
    10     5     7    1
    11     5     8    1
    12     5    10    1
    13     6     9    2
    14     6    13    1
    15     7    12    1
    16     7    26    1
    17     7    27    1
    18     8    14    2
    19     8    28    1
    20     9    11   ar
    21     9    16   ar
    22    10    29    1
    23    10    30    1
    24    10    31    1
    25    11    12    2
    26    11    17   ar
    27    12    32    1
    28    13    15    2
    29    13    33    1
    30    14    15   ar
    31    14    18   ar
    32    15    21   ar
    33    16    19   ar
    34    16    34    1
    35    17    20   ar
    36    17    35    1
    37    18    22   ar
    38    19    20   ar
    39    21    23   ar
    40    21    36    1
    41    22    23   ar
    42    23    37    1
    43    24    38    1
    44    24    39    1
    45    25    41    1
    46    25    42    1
    47    25    43    1
