@<TRIPOS>MOLECULE
IMPHY017014
 40 42 0 0 0
SMALL
GASTEIGER

@<TRIPOS>ATOM
      1 O           4.4453   -2.7034    0.0000 O.3     1  UNL1       -0.3947
      2 C           4.0984   -0.0552    0.0000 C.3     1  UNL1       -0.0028
      3 C           4.5984    2.1354    0.0000 C.3     1  UNL1       -0.0314
      4 C           3.9916    1.1215    0.0000 C.3     1  UNL1       -0.0397
      5 C           3.9624   -1.0400    0.0000 C.3     1  UNL1       -0.0082
      6 C           4.9994    0.3786    0.0000 C.3     1  UNL1       -0.0430
      7 C           3.5984    2.1354    0.0000 C.3     1  UNL1       -0.0110
      8 C           3.1974    0.3786    0.0000 C.2     1  UNL1       -0.0635
      9 C           5.2219    1.3536    0.0000 C.3     1  UNL1       -0.0486
     10 C           2.9749    1.3536    0.0000 C.2     1  UNL1       -0.0669
     11 C           2.9842   -1.2166    0.0000 C.3     1  UNL1       -0.0436
     12 C           2.5124   -0.3417    0.0000 C.3     1  UNL1       -0.0306
     13 C           4.6840   -1.7323    0.0000 C.3     1  UNL1        0.0478
     14 C           2.7722    2.6987    0.0000 C.3     1  UNL1       -0.0558
     15 C           3.6732    3.1326    0.0000 C.3     1  UNL1       -0.0558
     16 C           2.0000    1.5761    0.0000 C.3     1  UNL1       -0.0430
     17 H           4.7876    2.9641    0.0000 H       1  UNL1        0.0309
     18 H           3.5838    1.5885    0.0000 H       1  UNL1        0.0277
     19 H           3.4215    0.8777    0.0000 H       1  UNL1        0.0277
     20 H           3.7833   -1.6336    0.0000 H       1  UNL1        0.0331
     21 H           5.1374   -0.2258    0.0000 H       1  UNL1        0.0274
     22 H           5.6194    0.3786    0.0000 H       1  UNL1        0.0274
     23 H           5.7805    1.0846    0.0000 H       1  UNL1        0.0268
     24 H           5.6085    1.8383    0.0000 H       1  UNL1        0.0268
     25 H           2.4105   -1.4519    0.0000 H       1  UNL1        0.0272
     26 H           3.1579   -1.8118    0.0000 H       1  UNL1        0.0272
     27 H           2.1105    0.1305    0.0000 H       1  UNL1        0.0310
     28 H           2.0006   -0.6917    0.0000 H       1  UNL1        0.0310
     29 H           5.2512   -1.9826    0.0000 H       1  UNL1        0.0560
     30 H           5.0290   -1.2172    0.0000 H       1  UNL1        0.0560
     31 H           3.1214    3.2110    0.0000 H       1  UNL1        0.0238
     32 H           2.2599    3.0480    0.0000 H       1  UNL1        0.0238
     33 H           2.4229    2.1864    0.0000 H       1  UNL1        0.0238
     34 H           4.2914    3.0863    0.0000 H       1  UNL1        0.0238
     35 H           3.7195    3.7509    0.0000 H       1  UNL1        0.0238
     36 H           3.0549    3.1789    0.0000 H       1  UNL1        0.0238
     37 H           2.1380    2.1805    0.0000 H       1  UNL1        0.0275
     38 H           1.3955    1.7140    0.0000 H       1  UNL1        0.0275
     39 H           1.8620    0.9716    0.0000 H       1  UNL1        0.0275
     40 H           4.8926   -3.1326    0.0000 H       1  UNL1        0.2094
@<TRIPOS>BOND
     1     1    13    1
     2     1    40    1
     3     2     4    1
     4     2     5    1
     5     2     6    1
     6     2     8    1
     7     3     4    1
     8     3     7    1
     9     3     9    1
    10     3    17    1
    11     4    18    1
    12     4    19    1
    13     5    11    1
    14     5    13    1
    15     5    20    1
    16     6     9    1
    17     6    21    1
    18     6    22    1
    19     7    10    1
    20     7    14    1
    21     7    15    1
    22     8    10    2
    23     8    12    1
    24     9    23    1
    25     9    24    1
    26    10    16    1
    27    11    12    1
    28    11    25    1
    29    11    26    1
    30    12    27    1
    31    12    28    1
    32    13    29    1
    33    13    30    1
    34    14    31    1
    35    14    32    1
    36    14    33    1
    37    15    34    1
    38    15    35    1
    39    15    36    1
    40    16    37    1
    41    16    38    1
    42    16    39    1
