@<TRIPOS>MOLECULE
IMPHY007739
 100 105 0 0 0
SMALL
GASTEIGER

@<TRIPOS>ATOM
      1 O           8.5991   -0.8812    0.0000 O.3     1  UNL1       -0.3302
      2 O          14.6720   -1.3968    0.0000 O.3     1  UNL1       -0.3302
      3 O          10.3312   -0.8812    0.0000 O.3     1  UNL1       -0.4598
      4 O          13.8233    0.1131    0.0000 O.3     1  UNL1       -0.4515
      5 O           6.8671   -2.8812    0.0000 O.3     1  UNL1       -0.3864
      6 O           8.5991   -3.8812    0.0000 O.3     1  UNL1       -0.3864
      7 O          13.7771   -3.8866    0.0000 O.3     1  UNL1       -0.3864
      8 O          12.0567   -2.8666    0.0000 O.3     1  UNL1       -0.3864
      9 O          10.3312   -2.8812    0.0000 O.3     1  UNL1       -0.3829
     10 O          12.0799   -0.8668    0.0000 O.3     1  UNL1       -0.3829
     11 O           6.0010   -1.3812    0.0000 O.3     1  UNL1       -0.4616
     12 O          16.3923   -2.4168    0.0000 O.3     1  UNL1       -0.4589
     13 O          12.1145    2.1330    0.0000 O.2     1  UNL1       -0.1997
     14 O           8.5849    2.1980    0.0000 O.3     1  UNL1       -0.5063
     15 O           5.1350    0.1188    0.0000 O.2     1  UNL1       -0.2502
     16 O          17.2410   -3.9267    0.0000 O.2     1  UNL1       -0.2456
     17 O          16.4386    1.5830    0.0000 O.3     1  UNL1       -0.5033
     18 O          16.4617    3.5828    0.0000 O.3     1  UNL1       -0.5033
     19 O           2.5369   -1.3812    0.0000 O.3     1  UNL1       -0.4802
     20 O           3.4030    0.1188    0.0000 O.2     1  UNL1       -0.2504
     21 O          22.4483   -2.9868    0.0000 O.3     1  UNL1       -0.5033
     22 O          22.4715   -0.9870    0.0000 O.3     1  UNL1       -0.5033
     23 C           7.7331   -2.3812    0.0000 C.3     1  UNL1        0.1130
     24 C           8.5991   -2.8812    0.0000 C.3     1  UNL1        0.1152
     25 C          13.7887   -2.8867    0.0000 C.3     1  UNL1        0.1130
     26 C          12.9285   -2.3767    0.0000 C.3     1  UNL1        0.1152
     27 C           7.7331   -1.3812    0.0000 C.3     1  UNL1        0.1250
     28 C           9.4651   -2.3812    0.0000 C.3     1  UNL1        0.1454
     29 C          14.6604   -2.3967    0.0000 C.3     1  UNL1        0.1250
     30 C          12.9400   -1.3768    0.0000 C.3     1  UNL1        0.1454
     31 C           9.4651   -1.3812    0.0000 C.3     1  UNL1        0.2309
     32 C          13.8118   -0.8868    0.0000 C.3     1  UNL1        0.2313
     33 C           6.8671   -0.8812    0.0000 C.3     1  UNL1        0.1212
     34 C          15.5206   -2.9067    0.0000 C.3     1  UNL1        0.1215
     35 C          10.3312    0.1188    0.0000 C.ar    1  UNL1        0.1437
     36 C          12.9632    0.6231    0.0000 C.ar    1  UNL1        0.2288
     37 C          11.2312    0.6431    0.0000 C.ar    1  UNL1        0.1245
     38 C          12.0914    0.1331    0.0000 C.ar    1  UNL1        0.0093
     39 C          12.9747    1.6230    0.0000 C.ar    1  UNL1        0.4046
     40 C          11.2428    1.6431    0.0000 C.ar    1  UNL1        0.3708
     41 C           9.4311    0.6431    0.0000 C.ar    1  UNL1        0.0229
     42 C          10.3551    2.1880    0.0000 C.ar    1  UNL1        0.0847
     43 C           9.4431    1.6847    0.0000 C.ar    1  UNL1        0.1293
     44 C          13.8465    2.1130    0.0000 C.ar    1  UNL1        0.0865
     45 C           5.1350   -0.8812    0.0000 C.2     1  UNL1        0.3180
     46 C          17.2525   -2.9267    0.0000 C.2     1  UNL1        0.3320
     47 C           4.2690   -1.3812    0.0000 C.3     1  UNL1        0.1418
     48 C          14.7067    1.6030    0.0000 C.ar    1  UNL1       -0.0003
     49 C          13.8580    3.1129    0.0000 C.ar    1  UNL1       -0.0418
     50 C          18.1243   -2.4368    0.0000 C.2     1  UNL1        0.0231
     51 C          15.5784    2.0930    0.0000 C.ar    1  UNL1        0.1591
     52 C          14.7298    3.6029    0.0000 C.ar    1  UNL1       -0.0157
     53 C          15.5900    3.0929    0.0000 C.ar    1  UNL1        0.1583
     54 C           3.4030   -0.8812    0.0000 C.2     1  UNL1        0.3155
     55 C          18.9845   -2.9468    0.0000 C.2     1  UNL1       -0.0477
     56 C          19.8562   -2.4568    0.0000 C.ar    1  UNL1       -0.0211
     57 C          20.7164   -2.9668    0.0000 C.ar    1  UNL1       -0.0094
     58 C          19.8678   -1.4569    0.0000 C.ar    1  UNL1       -0.0509
     59 C          21.5882   -2.4768    0.0000 C.ar    1  UNL1        0.1588
     60 C          20.7395   -0.9669    0.0000 C.ar    1  UNL1       -0.0160
     61 C          21.5997   -1.4769    0.0000 C.ar    1  UNL1        0.1582
     62 H           7.7331   -3.0012    0.0000 H       1  UNL1        0.0647
     63 H           9.1360   -3.1912    0.0000 H       1  UNL1        0.0648
     64 H          14.3220   -3.2029    0.0000 H       1  UNL1        0.0647
     65 H          12.3952   -2.0605    0.0000 H       1  UNL1        0.0648
     66 H           7.7331   -0.7612    0.0000 H       1  UNL1        0.0658
     67 H          10.0021   -2.0712    0.0000 H       1  UNL1        0.0683
     68 H          15.2009   -2.0930    0.0000 H       1  UNL1        0.0658
     69 H          12.9472   -0.7568    0.0000 H       1  UNL1        0.0683
     70 H           9.4651   -0.7612    0.0000 H       1  UNL1        0.1084
     71 H          14.3523   -0.5830    0.0000 H       1  UNL1        0.1084
     72 H           7.2656   -0.4062    0.0000 H       1  UNL1        0.0724
     73 H           6.4685   -0.4062    0.0000 H       1  UNL1        0.0724
     74 H          15.1166   -3.3770    0.0000 H       1  UNL1        0.0725
     75 H          15.9136   -3.3862    0.0000 H       1  UNL1        0.0725
     76 H           6.8671   -3.5012    0.0000 H       1  UNL1        0.2100
     77 H           8.0622   -4.1912    0.0000 H       1  UNL1        0.2100
     78 H          14.3104   -4.2028    0.0000 H       1  UNL1        0.2100
     79 H          12.0496   -3.4866    0.0000 H       1  UNL1        0.2100
     80 H          10.3312   -3.5012    0.0000 H       1  UNL1        0.2102
     81 H          11.5394   -1.1706    0.0000 H       1  UNL1        0.2102
     82 H          12.0842   -0.4868    0.0000 H       1  UNL1        0.0667
     83 H           8.8918    0.3373    0.0000 H       1  UNL1        0.0691
     84 H          10.3694    2.8079    0.0000 H       1  UNL1        0.0749
     85 H           3.8705   -1.8561    0.0000 H       1  UNL1        0.0493
     86 H           4.6675   -1.8561    0.0000 H       1  UNL1        0.0493
     87 H          14.6995    0.9830    0.0000 H       1  UNL1        0.0664
     88 H          13.3247    3.4291    0.0000 H       1  UNL1        0.0628
     89 H          18.1314   -1.8168    0.0000 H       1  UNL1        0.0689
     90 H           8.5945    2.8179    0.0000 H       1  UNL1        0.2921
     91 H          14.7370    4.2228    0.0000 H       1  UNL1        0.0655
     92 H          18.9773   -3.5667    0.0000 H       1  UNL1        0.0626
     93 H          16.9791    1.8868    0.0000 H       1  UNL1        0.2923
     94 H          16.4689    4.2028    0.0000 H       1  UNL1        0.2923
     95 H           2.0000   -1.0712    0.0000 H       1  UNL1        0.2951
     96 H          20.7092   -3.5868    0.0000 H       1  UNL1        0.0661
     97 H          19.3345   -1.1407    0.0000 H       1  UNL1        0.0625
     98 H          20.7467   -0.3470    0.0000 H       1  UNL1        0.0655
     99 H          22.4412   -3.6068    0.0000 H       1  UNL1        0.2923
    100 H          22.4786   -0.3670    0.0000 H       1  UNL1        0.2923
@<TRIPOS>UNITY_ATOM_ATTR
13 1
charge 1
@<TRIPOS>BOND
     1     1    27    1
     2     1    31    1
     3     2    29    1
     4     2    32    1
     5    31     3    1
     6     3    35    1
     7    32     4    1
     8     4    36    1
     9    23     5    1
    10     5    76    1
    11    24     6    1
    12     6    77    1
    13    25     7    1
    14     7    78    1
    15    26     8    1
    16     8    79    1
    17    28     9    1
    18     9    80    1
    19    30    10    1
    20    10    81    1
    21    11    33    1
    22    11    45    1
    23    12    34    1
    24    12    46    1
    25    13    39   ar
    26    13    40   ar
    27    14    43    1
    28    14    90    1
    29    15    45    2
    30    16    46    2
    31    17    51    1
    32    17    93    1
    33    18    53    1
    34    18    94    1
    35    19    54    1
    36    19    95    1
    37    20    54    2
    38    21    59    1
    39    21    99    1
    40    22    61    1
    41    22   100    1
    42    23    24    1
    43    23    27    1
    44    23    62    1
    45    24    28    1
    46    24    63    1
    47    25    26    1
    48    25    29    1
    49    25    64    1
    50    26    30    1
    51    26    65    1
    52    27    33    1
    53    27    66    1
    54    28    31    1
    55    28    67    1
    56    29    34    1
    57    29    68    1
    58    30    32    1
    59    30    69    1
    60    31    70    1
    61    32    71    1
    62    33    72    1
    63    33    73    1
    64    34    74    1
    65    34    75    1
    66    35    37   ar
    67    35    41   ar
    68    36    38   ar
    69    36    39   ar
    70    37    38   ar
    71    37    40   ar
    72    38    82    1
    73    39    44    1
    74    40    42   ar
    75    41    43   ar
    76    41    83    1
    77    42    43   ar
    78    42    84    1
    79    44    48   ar
    80    44    49   ar
    81    45    47    1
    82    46    50    1
    83    47    54    1
    84    47    85    1
    85    47    86    1
    86    48    51   ar
    87    48    87    1
    88    49    52   ar
    89    49    88    1
    90    50    55    2
    91    50    89    1
    92    51    53   ar
    93    52    53   ar
    94    52    91    1
    95    55    56    1
    96    55    92    1
    97    56    57   ar
    98    56    58   ar
    99    57    59   ar
   100    57    96    1
   101    58    60   ar
   102    58    97    1
   103    59    61   ar
   104    60    61   ar
   105    60    98    1
