@<TRIPOS>MOLECULE
IMPHY011153
 33 34 0 0 0
SMALL
GASTEIGER

@<TRIPOS>ATOM
      1 O           3.7320   -1.7450    0.0000 O.2     1  UNL1       -0.2870
      2 O           3.7320    2.2550    0.0000 O.2     1  UNL1       -0.2872
      3 C           5.4804   -1.7796    0.0000 C.3     1  UNL1       -0.0208
      4 C           5.4920   -0.7797    0.0000 C.ar    1  UNL1       -0.0333
      5 C           4.5981   -0.2450    0.0000 C.ar    1  UNL1        0.0364
      6 C           4.5981    0.7550    0.0000 C.ar    1  UNL1        0.0356
      7 C           5.4920    1.2896    0.0000 C.ar    1  UNL1       -0.0390
      8 C           6.3981   -0.2658    0.0000 C.ar    1  UNL1       -0.0574
      9 C           3.7320   -0.7450    0.0000 C.2     1  UNL1        0.1900
     10 C           6.3406   -2.2896    0.0000 C.3     1  UNL1       -0.0586
     11 C           4.6087   -2.2696    0.0000 C.3     1  UNL1       -0.0586
     12 C           6.3981    0.7758    0.0000 C.ar    1  UNL1       -0.0579
     13 C           3.7320    1.2550    0.0000 C.2     1  UNL1        0.1874
     14 C           2.8660   -0.2450    0.0000 C.2     1  UNL1        0.0005
     15 C           2.8660    0.7550    0.0000 C.2     1  UNL1       -0.0078
     16 C           5.4804    2.2896    0.0000 C.3     1  UNL1       -0.0390
     17 C           2.0000   -0.7450    0.0000 C.3     1  UNL1       -0.0359
     18 H           6.0209   -1.4758    0.0000 H       1  UNL1        0.0344
     19 H           6.9338   -0.5779    0.0000 H       1  UNL1        0.0621
     20 H           6.0244   -2.8229    0.0000 H       1  UNL1        0.0235
     21 H           6.8740   -2.6058    0.0000 H       1  UNL1        0.0235
     22 H           6.6568   -1.7563    0.0000 H       1  UNL1        0.0235
     23 H           4.3049   -1.7291    0.0000 H       1  UNL1        0.0235
     24 H           4.0682   -2.5733    0.0000 H       1  UNL1        0.0235
     25 H           4.9125   -2.8100    0.0000 H       1  UNL1        0.0235
     26 H           6.9338    1.0879    0.0000 H       1  UNL1        0.0620
     27 H           2.3291    1.0650    0.0000 H       1  UNL1        0.0660
     28 H           6.1004    2.2968    0.0000 H       1  UNL1        0.0278
     29 H           5.4733    2.9095    0.0000 H       1  UNL1        0.0278
     30 H           4.8605    2.2824    0.0000 H       1  UNL1        0.0278
     31 H           1.6900   -0.2081    0.0000 H       1  UNL1        0.0279
     32 H           1.4631   -1.0550    0.0000 H       1  UNL1        0.0279
     33 H           2.3100   -1.2820    0.0000 H       1  UNL1        0.0279
@<TRIPOS>BOND
     1     1     9    2
     2     2    13    2
     3     3     4    1
     4     3    10    1
     5     3    11    1
     6     3    18    1
     7     4     5   ar
     8     4     8   ar
     9     5     6   ar
    10     5     9    1
    11     6     7   ar
    12     6    13    1
    13     7    12   ar
    14     7    16    1
    15     8    12   ar
    16     8    19    1
    17     9    14    1
    18    10    20    1
    19    10    21    1
    20    10    22    1
    21    11    23    1
    22    11    24    1
    23    11    25    1
    24    12    26    1
    25    13    15    1
    26    14    15    2
    27    14    17    1
    28    15    27    1
    29    16    28    1
    30    16    29    1
    31    16    30    1
    32    17    31    1
    33    17    32    1
    34    17    33    1
