@<TRIPOS>MOLECULE
IMPHY003543
 20 20 0 0 0
SMALL
GASTEIGER

@<TRIPOS>ATOM
      1 O           2.0000    1.0000    0.0000 O.3     1  UNL1       -0.4784
      2 N           3.7320   -1.0000    0.0000 N.ar    1  UNL1       -0.2531
      3 N           3.7320    1.0000    0.0000 N.ar    1  UNL1       -0.2183
      4 C           2.0000   -1.0000    0.0000 C.3     1  UNL1       -0.0081
      5 C           2.8660   -0.5000    0.0000 C.ar    1  UNL1        0.1023
      6 C           2.8660    0.5000    0.0000 C.ar    1  UNL1        0.2365
      7 C           2.0000   -2.0000    0.0000 C.3     1  UNL1       -0.0597
      8 C           4.5981   -0.5000    0.0000 C.ar    1  UNL1        0.0462
      9 C           4.5981    0.5000    0.0000 C.ar    1  UNL1        0.0495
     10 C           2.0000    2.0000    0.0000 C.3     1  UNL1        0.0805
     11 H           1.7880   -0.4174    0.0000 H       1  UNL1        0.0327
     12 H           1.3894   -1.1077    0.0000 H       1  UNL1        0.0327
     13 H           1.3800   -2.0000    0.0000 H       1  UNL1        0.0233
     14 H           2.0000   -2.6200    0.0000 H       1  UNL1        0.0233
     15 H           2.6200   -2.0000    0.0000 H       1  UNL1        0.0233
     16 H           5.1350   -0.8100    0.0000 H       1  UNL1        0.0845
     17 H           5.1350    0.8100    0.0000 H       1  UNL1        0.0846
     18 H           2.6200    2.0000    0.0000 H       1  UNL1        0.0660
     19 H           2.0000    2.6200    0.0000 H       1  UNL1        0.0660
     20 H           1.3800    2.0000    0.0000 H       1  UNL1        0.0660
@<TRIPOS>BOND
     1     1     6    1
     2     1    10    1
     3     2     5   ar
     4     2     8   ar
     5     3     6   ar
     6     3     9   ar
     7     4     5    1
     8     4     7    1
     9     4    11    1
    10     4    12    1
    11     5     6   ar
    12     7    13    1
    13     7    14    1
    14     7    15    1
    15     8     9   ar
    16     8    16    1
    17     9    17    1
    18    10    18    1
    19    10    19    1
    20    10    20    1
