@<TRIPOS>MOLECULE
IMPHY016413
 30 30 0 0 0
SMALL
GASTEIGER

@<TRIPOS>ATOM
      1 O           3.7320    2.5000    0.0000 O.2     1  UNL1       -0.2930
      2 C           2.8660   -1.0000    0.0000 C.ar    1  UNL1       -0.0401
      3 C           3.7320   -0.5000    0.0000 C.ar    1  UNL1       -0.0189
      4 C           2.8660   -2.0000    0.0000 C.ar    1  UNL1       -0.0470
      5 C           4.5981   -1.0000    0.0000 C.ar    1  UNL1       -0.0430
      6 C           3.7320   -2.5000    0.0000 C.ar    1  UNL1       -0.0583
      7 C           4.5981   -2.0000    0.0000 C.ar    1  UNL1       -0.0580
      8 C           2.0000   -0.5000    0.0000 C.3     1  UNL1       -0.0389
      9 C           3.7320    0.5000    0.0000 C.2     1  UNL1       -0.0508
     10 C           2.0000   -2.5000    0.0000 C.3     1  UNL1       -0.0394
     11 C           5.4641   -0.5000    0.0000 C.3     1  UNL1       -0.0391
     12 C           4.5981    1.0000    0.0000 C.2     1  UNL1       -0.0189
     13 C           4.5981    2.0000    0.0000 C.2     1  UNL1        0.1531
     14 C           5.4641    2.5000    0.0000 C.3     1  UNL1       -0.0020
     15 H           3.7320   -3.1200    0.0000 H       1  UNL1        0.0620
     16 H           5.1350   -2.3100    0.0000 H       1  UNL1        0.0620
     17 H           2.3100    0.0369    0.0000 H       1  UNL1        0.0278
     18 H           1.4631   -0.1900    0.0000 H       1  UNL1        0.0278
     19 H           1.6900   -1.0369    0.0000 H       1  UNL1        0.0278
     20 H           3.1951    0.8100    0.0000 H       1  UNL1        0.0625
     21 H           1.6900   -1.9631    0.0000 H       1  UNL1        0.0278
     22 H           1.4631   -2.8100    0.0000 H       1  UNL1        0.0278
     23 H           2.3100   -3.0369    0.0000 H       1  UNL1        0.0278
     24 H           5.7741   -1.0369    0.0000 H       1  UNL1        0.0278
     25 H           6.0010   -0.1900    0.0000 H       1  UNL1        0.0278
     26 H           5.1541    0.0369    0.0000 H       1  UNL1        0.0278
     27 H           5.1350    0.6900    0.0000 H       1  UNL1        0.0652
     28 H           5.7741    1.9631    0.0000 H       1  UNL1        0.0309
     29 H           6.0010    2.8100    0.0000 H       1  UNL1        0.0309
     30 H           5.1541    3.0369    0.0000 H       1  UNL1        0.0309
@<TRIPOS>BOND
     1     1    13    2
     2     2     3   ar
     3     2     4   ar
     4     2     8    1
     5     3     5   ar
     6     3     9    1
     7     4     6   ar
     8     4    10    1
     9     5     7   ar
    10     5    11    1
    11     6     7   ar
    12     6    15    1
    13     7    16    1
    14     8    17    1
    15     8    18    1
    16     8    19    1
    17     9    12    2
    18     9    20    1
    19    10    21    1
    20    10    22    1
    21    10    23    1
    22    11    24    1
    23    11    25    1
    24    11    26    1
    25    12    13    1
    26    12    27    1
    27    13    14    1
    28    14    28    1
    29    14    29    1
    30    14    30    1
