@<TRIPOS>MOLECULE
IMPHY007969
 64 68 0 0 0
SMALL
GASTEIGER

@<TRIPOS>ATOM
      1 O           9.9050    2.4713    0.0000 O.3     1  UNL1       -0.3911
      2 O           7.9078   -0.9758    0.0000 O.3     1  UNL1       -0.4605
      3 O          11.4352   -1.4018    0.0000 O.2     1  UNL1       -0.2954
      4 O           6.3672   -0.1844    0.0000 O.2     1  UNL1       -0.2505
      5 O           2.4569   -2.1105    0.0000 O.3     1  UNL1       -0.4951
      6 N          11.8426    0.8143    0.0000 N.3     1  UNL1       -0.2898
      7 C          10.1106    0.8143    0.0000 C.3     1  UNL1        0.0285
      8 C          10.9766    0.3143    0.0000 C.3     1  UNL1        0.0888
      9 C           9.3736    0.1472    0.0000 C.3     1  UNL1        0.0132
     10 C           9.4276    1.5926    0.0000 C.3     1  UNL1        0.0637
     11 C          10.1106    1.8143    0.0000 C.3     1  UNL1       -0.0414
     12 C           9.7787   -0.7606    0.0000 C.3     1  UNL1        0.0146
     13 C          11.6437   -0.4227    0.0000 C.3     1  UNL1       -0.0258
     14 C           8.3648   -0.0863    0.0000 C.3     1  UNL1        0.1095
     15 C          10.7674   -0.6575    0.0000 C.2     1  UNL1        0.1545
     16 C           7.8081    0.5830    0.0000 C.3     1  UNL1       -0.0040
     17 C           8.2696    1.4756    0.0000 C.3     1  UNL1       -0.0203
     18 C          10.9766    2.3143    0.0000 C.3     1  UNL1       -0.0395
     19 C          11.8426    1.8143    0.0000 C.3     1  UNL1       -0.0002
     20 C          12.8144    0.6051    0.0000 C.3     1  UNL1       -0.0001
     21 C          12.7345   -0.2006    0.0000 C.3     1  UNL1       -0.0381
     22 C           6.8090    0.5416    0.0000 C.3     1  UNL1       -0.0590
     23 C           6.9090   -1.0248    0.0000 C.2     1  UNL1        0.3117
     24 C           6.4521   -1.9143    0.0000 C.3     1  UNL1        0.0701
     25 C           5.4533   -1.9634    0.0000 C.ar    1  UNL1       -0.0365
     26 C           4.9114   -1.1229    0.0000 C.ar    1  UNL1       -0.0546
     27 C           4.9964   -2.8529    0.0000 C.ar    1  UNL1       -0.0546
     28 C           3.9126   -1.1720    0.0000 C.ar    1  UNL1       -0.0197
     29 C           3.9976   -2.9019    0.0000 C.ar    1  UNL1       -0.0197
     30 C           3.4557   -2.0615    0.0000 C.ar    1  UNL1        0.1201
     31 C           2.0000   -3.0000    0.0000 C.3     1  UNL1        0.0788
     32 H           8.9948   -0.6138    0.0000 H       1  UNL1        0.0347
     33 H           9.0843    2.1088    0.0000 H       1  UNL1        0.0600
     34 H           9.8985    2.3969    0.0000 H       1  UNL1        0.0273
     35 H           9.5000    1.7066    0.0000 H       1  UNL1        0.0273
     36 H           9.1891   -0.9523    0.0000 H       1  UNL1        0.0346
     37 H           9.9074   -1.3671    0.0000 H       1  UNL1        0.0346
     38 H          11.1175   -0.7507    0.0000 H       1  UNL1        0.0288
     39 H          11.8731   -0.9987    0.0000 H       1  UNL1        0.0288
     40 H           7.7485   -0.1541    0.0000 H       1  UNL1        0.0739
     41 H           7.4748    1.1058    0.0000 H       1  UNL1        0.0335
     42 H           8.3265    2.0929    0.0000 H       1  UNL1        0.0294
     43 H           7.6745    1.6496    0.0000 H       1  UNL1        0.0294
     44 H          11.3751    2.7892    0.0000 H       1  UNL1        0.0278
     45 H          10.5781    2.7892    0.0000 H       1  UNL1        0.0278
     46 H          12.4532    1.7066    0.0000 H       1  UNL1        0.0427
     47 H          12.0547    2.3969    0.0000 H       1  UNL1        0.0427
     48 H          13.4287    0.5206    0.0000 H       1  UNL1        0.0427
     49 H          12.9220    1.2157    0.0000 H       1  UNL1        0.0427
     50 H          12.7969   -0.8175    0.0000 H       1  UNL1        0.0278
     51 H          13.3545   -0.2000    0.0000 H       1  UNL1        0.0278
     52 H           6.7833    1.1611    0.0000 H       1  UNL1        0.0234
     53 H           6.1895    0.5160    0.0000 H       1  UNL1        0.0234
     54 H           6.8346   -0.0778    0.0000 H       1  UNL1        0.0234
     55 H           9.5812    3.0000    0.0000 H       1  UNL1        0.2098
     56 H           6.3745   -2.5295    0.0000 H       1  UNL1        0.0426
     57 H           7.0444   -2.0976    0.0000 H       1  UNL1        0.0426
     58 H           5.1947   -0.5714    0.0000 H       1  UNL1        0.0622
     59 H           5.3324   -3.3740    0.0000 H       1  UNL1        0.0622
     60 H           3.5767   -0.6509    0.0000 H       1  UNL1        0.0654
     61 H           3.7143   -3.4534    0.0000 H       1  UNL1        0.0654
     62 H           1.4485   -2.7167    0.0000 H       1  UNL1        0.0660
     63 H           1.7167   -3.5515    0.0000 H       1  UNL1        0.0660
     64 H           2.5515   -3.2833    0.0000 H       1  UNL1        0.0660
@<TRIPOS>BOND
     1    10     1    1
     2     1    55    1
     3    14     2    1
     4     2    23    1
     5     3    15    2
     6     4    23    2
     7     5    30    1
     8     5    31    1
     9     6     8    1
    10     6    19    1
    11     6    20    1
    12     7     8    1
    13     7     9    1
    14     7    10    1
    15     7    11    1
    16     8    13    1
    17     8    15    1
    18     9    12    1
    19     9    14    1
    20     9    32    1
    21    10    17    1
    22    10    33    1
    23    11    18    1
    24    11    34    1
    25    11    35    1
    26    12    15    1
    27    12    36    1
    28    12    37    1
    29    13    21    1
    30    13    38    1
    31    13    39    1
    32    14    16    1
    33    14    40    1
    34    16    17    1
    35    16    22    1
    36    16    41    1
    37    17    42    1
    38    17    43    1
    39    18    19    1
    40    18    44    1
    41    18    45    1
    42    19    46    1
    43    19    47    1
    44    20    21    1
    45    20    48    1
    46    20    49    1
    47    21    50    1
    48    21    51    1
    49    22    52    1
    50    22    53    1
    51    22    54    1
    52    23    24    1
    53    24    25    1
    54    24    56    1
    55    24    57    1
    56    25    26   ar
    57    25    27   ar
    58    26    28   ar
    59    26    58    1
    60    27    29   ar
    61    27    59    1
    62    28    30   ar
    63    28    60    1
    64    29    30   ar
    65    29    61    1
    66    31    62    1
    67    31    63    1
    68    31    64    1
