@<TRIPOS>MOLECULE
IMPHY015177
 25 24 0 0 0
SMALL
GASTEIGER

@<TRIPOS>ATOM
      1 O           5.1350    0.2500    0.0000 O.3     1  UNL1       -0.3772
      2 O           2.5369    0.7500    0.0000 O.3     1  UNL1       -0.3898
      3 C           6.8671    0.2500    0.0000 C.3     1  UNL1       -0.0297
      4 C           6.0010    0.7500    0.0000 C.3     1  UNL1        0.0478
      5 C           7.7331    0.7500    0.0000 C.3     1  UNL1       -0.0538
      6 C           4.2690    0.7500    0.0000 C.3     1  UNL1        0.0733
      7 C           3.4030    0.2500    0.0000 C.3     1  UNL1        0.0757
      8 C           3.4030   -0.7500    0.0000 C.3     1  UNL1       -0.0368
      9 C           8.5991    0.2500    0.0000 C.3     1  UNL1       -0.0652
     10 H           6.4685   -0.2249    0.0000 H       1  UNL1        0.0287
     11 H           7.2656   -0.2249    0.0000 H       1  UNL1        0.0287
     12 H           6.3996    1.2250    0.0000 H       1  UNL1        0.0560
     13 H           5.6025    1.2250    0.0000 H       1  UNL1        0.0560
     14 H           8.1316    1.2250    0.0000 H       1  UNL1        0.0263
     15 H           7.3346    1.2250    0.0000 H       1  UNL1        0.0263
     16 H           4.6675    1.2250    0.0000 H       1  UNL1        0.0585
     17 H           3.8705    1.2250    0.0000 H       1  UNL1        0.0585
     18 H           3.4030    0.8700    0.0000 H       1  UNL1        0.0613
     19 H           2.7830   -0.7500    0.0000 H       1  UNL1        0.0255
     20 H           3.4030   -1.3700    0.0000 H       1  UNL1        0.0255
     21 H           4.0230   -0.7500    0.0000 H       1  UNL1        0.0255
     22 H           8.2891   -0.2869    0.0000 H       1  UNL1        0.0230
     23 H           9.1360   -0.0600    0.0000 H       1  UNL1        0.0230
     24 H           8.9091    0.7869    0.0000 H       1  UNL1        0.0230
     25 H           2.0000    0.4400    0.0000 H       1  UNL1        0.2099
@<TRIPOS>BOND
     1     1     4    1
     2     1     6    1
     3     2     7    1
     4     2    25    1
     5     3     4    1
     6     3     5    1
     7     3    10    1
     8     3    11    1
     9     4    12    1
    10     4    13    1
    11     5     9    1
    12     5    14    1
    13     5    15    1
    14     6     7    1
    15     6    16    1
    16     6    17    1
    17     7     8    1
    18     7    18    1
    19     8    19    1
    20     8    20    1
    21     8    21    1
    22     9    22    1
    23     9    23    1
    24     9    24    1
