@<TRIPOS>MOLECULE
IMPHY007873
 116 122 0 0 0
SMALL
GASTEIGER

@<TRIPOS>ATOM
      1 O          11.1246    0.0997    0.0000 O.3     1  UNL1       -0.3449
      2 O           6.4144   -5.8775    0.0000 O.3     1  UNL1       -0.3906
      3 O           3.9891   -6.0864    0.0000 O.3     1  UNL1       -0.4802
      4 O           5.1937   -6.5354    0.0000 O.2     1  UNL1       -0.2503
      5 O          10.2528    1.5964    0.0000 O.3     1  UNL1       -0.3461
      6 O          12.8528    1.1064    0.0000 O.3     1  UNL1       -0.3841
      7 O          12.8451    3.1064    0.0000 O.3     1  UNL1       -0.3864
      8 O          11.1092    4.0997    0.0000 O.3     1  UNL1       -0.3405
      9 O          10.2374    5.5964    0.0000 O.3     1  UNL1       -0.3461
     10 O           9.3810    3.0930    0.0000 O.3     1  UNL1       -0.3841
     11 O           7.6451    4.0864    0.0000 O.3     1  UNL1       -0.3864
     12 O           7.6374    6.0864    0.0000 O.3     1  UNL1       -0.3869
     13 C           7.5167   -3.0446    0.0000 C.3     1  UNL1       -0.0193
     14 C           7.5167   -2.0446    0.0000 C.3     1  UNL1       -0.0257
     15 C           8.4106   -1.5100    0.0000 C.3     1  UNL1       -0.0250
     16 C           6.6507   -3.5446    0.0000 C.3     1  UNL1       -0.0028
     17 C           9.3167   -2.0238    0.0000 C.3     1  UNL1       -0.0278
     18 C           8.4106   -3.5793    0.0000 C.3     1  UNL1       -0.0463
     19 C           9.3167   -3.0654    0.0000 C.3     1  UNL1       -0.0486
     20 C          10.2605   -1.4886    0.0000 C.3     1  UNL1       -0.0052
     21 C           5.7847   -3.0446    0.0000 C.2     1  UNL1       -0.0627
     22 C           4.8746   -3.5515    0.0000 C.3     1  UNL1       -0.0007
     23 C           6.6507   -1.5446    0.0000 C.3     1  UNL1       -0.0306
     24 C           8.3856   -0.4253    0.0000 C.3     1  UNL1       -0.0447
     25 C           6.6667   -4.5861    0.0000 C.3     1  UNL1       -0.0162
     26 C           4.8666   -4.5931    0.0000 C.3     1  UNL1        0.0998
     27 C           5.7687   -5.1139    0.0000 C.3     1  UNL1        0.0723
     28 C           7.8588   -3.9843    0.0000 C.3     1  UNL1       -0.0585
     29 C          10.2605   -0.4036    0.0000 C.3     1  UNL1        0.0672
     30 C           7.5408   -1.0167    0.0000 C.3     1  UNL1       -0.0590
     31 C           5.7847   -2.0446    0.0000 C.2     1  UNL1       -0.0836
     32 C           9.3167    0.1316    0.0000 C.3     1  UNL1       -0.0255
     33 C           7.2935   -4.3107    0.0000 C.3     1  UNL1       -0.0552
     34 C           3.9478   -2.9874    0.0000 C.3     1  UNL1       -0.0402
     35 C           3.9312   -5.1428    0.0000 C.3     1  UNL1       -0.0338
     36 C           2.9999   -3.5154    0.0000 C.3     1  UNL1       -0.0343
     37 C          11.2605   -1.4924    0.0000 C.3     1  UNL1       -0.0572
     38 C          10.7572   -2.3565    0.0000 C.3     1  UNL1       -0.0572
     39 C           2.9916   -4.6003    0.0000 C.3     1  UNL1       -0.0467
     40 C           4.8589   -5.5930    0.0000 C.2     1  UNL1        0.3140
     41 C           2.0000   -3.5038    0.0000 C.3     1  UNL1       -0.0598
     42 C           2.5100   -2.6436    0.0000 C.3     1  UNL1       -0.0598
     43 C          11.1207    1.0997    0.0000 C.3     1  UNL1        0.1878
     44 C          11.9848    1.6031    0.0000 C.3     1  UNL1        0.1341
     45 C          11.9810    2.6031    0.0000 C.3     1  UNL1        0.1141
     46 C          10.2489    2.5964    0.0000 C.3     1  UNL1        0.0796
     47 C          11.1130    3.0997    0.0000 C.3     1  UNL1        0.1134
     48 C          10.2412    4.5964    0.0000 C.3     1  UNL1        0.1880
     49 C           9.3771    4.0930    0.0000 C.3     1  UNL1        0.1341
     50 C           8.5092    4.5897    0.0000 C.3     1  UNL1        0.1137
     51 C           9.3694    6.0930    0.0000 C.3     1  UNL1        0.0792
     52 C           8.5053    5.5897    0.0000 C.3     1  UNL1        0.1069
     53 H           8.2561   -2.4640    0.0000 H       1  UNL1        0.0315
     54 H          10.0512   -2.4517    0.0000 H       1  UNL1        0.0312
     55 H           8.0060   -4.0491    0.0000 H       1  UNL1        0.0271
     56 H           8.8043   -4.0583    0.0000 H       1  UNL1        0.0271
     57 H           9.5258   -3.6491    0.0000 H       1  UNL1        0.0268
     58 H           9.9276   -2.9594    0.0000 H       1  UNL1        0.0268
     59 H           4.8910   -2.7016    0.0000 H       1  UNL1        0.0357
     60 H           7.0492   -1.0697    0.0000 H       1  UNL1        0.0310
     61 H           6.2522   -1.0697    0.0000 H       1  UNL1        0.0310
     62 H           8.1631    0.1534    0.0000 H       1  UNL1        0.0271
     63 H           7.7773   -0.5455    0.0000 H       1  UNL1        0.0271
     64 H           6.8848   -5.1665    0.0000 H       1  UNL1        0.0299
     65 H           7.2759   -4.4706    0.0000 H       1  UNL1        0.0299
     66 H           5.3711   -5.5896    0.0000 H       1  UNL1        0.0605
     67 H           7.2762   -4.1964    0.0000 H       1  UNL1        0.0235
     68 H           8.0709   -4.5669    0.0000 H       1  UNL1        0.0235
     69 H           8.4414   -3.7722    0.0000 H       1  UNL1        0.0235
     70 H          10.7980   -0.7126    0.0000 H       1  UNL1        0.0602
     71 H           7.8466   -0.4774    0.0000 H       1  UNL1        0.0235
     72 H           7.0015   -0.7108    0.0000 H       1  UNL1        0.0235
     73 H           7.2349   -1.5560    0.0000 H       1  UNL1        0.0235
     74 H           5.2477   -1.7346    0.0000 H       1  UNL1        0.0572
     75 H           9.7103    0.6107    0.0000 H       1  UNL1        0.0290
     76 H           8.9121    0.6014    0.0000 H       1  UNL1        0.0290
     77 H           6.8185   -4.7092    0.0000 H       1  UNL1        0.0238
     78 H           7.6920   -4.7856    0.0000 H       1  UNL1        0.0238
     79 H           7.7684   -3.9122    0.0000 H       1  UNL1        0.0238
     80 H           4.3560   -2.5208    0.0000 H       1  UNL1        0.0276
     81 H           3.5579   -2.5054    0.0000 H       1  UNL1        0.0276
     82 H           3.5339   -5.6188    0.0000 H       1  UNL1        0.0277
     83 H           4.3322   -5.6157    0.0000 H       1  UNL1        0.0277
     84 H          11.2581   -2.1124    0.0000 H       1  UNL1        0.0236
     85 H          11.8805   -1.4948    0.0000 H       1  UNL1        0.0236
     86 H          11.2629   -0.8724    0.0000 H       1  UNL1        0.0236
     87 H          10.2190   -2.6645    0.0000 H       1  UNL1        0.0236
     88 H          11.0651   -2.8947    0.0000 H       1  UNL1        0.0236
     89 H          11.2953   -2.0486    0.0000 H       1  UNL1        0.0236
     90 H           2.3816   -4.4895    0.0000 H       1  UNL1        0.0271
     91 H           2.7780   -5.1824    0.0000 H       1  UNL1        0.0271
     92 H           7.0246   -5.7674    0.0000 H       1  UNL1        0.2098
     93 H           3.0505   -2.3398    0.0000 H       1  UNL1        0.0235
     94 H           2.2062   -2.1031    0.0000 H       1  UNL1        0.0235
     95 H           2.0072   -2.8838    0.0000 H       1  UNL1        0.0235
     96 H           1.3800   -3.4966    0.0000 H       1  UNL1        0.0235
     97 H           1.9928   -4.1237    0.0000 H       1  UNL1        0.0235
     98 H           1.9695   -2.9474    0.0000 H       1  UNL1        0.0235
     99 H          10.5850    0.7877    0.0000 H       1  UNL1        0.0937
    100 H           3.9843   -6.7063    0.0000 H       1  UNL1        0.2951
    101 H          11.9872    0.9831    0.0000 H       1  UNL1        0.0671
    102 H          11.9786    3.2231    0.0000 H       1  UNL1        0.0648
    103 H          10.0346    3.1782    0.0000 H       1  UNL1        0.0587
    104 H           9.6388    2.4864    0.0000 H       1  UNL1        0.0587
    105 H          10.5749    3.4076    0.0000 H       1  UNL1        0.0647
    106 H          13.3885    1.4185    0.0000 H       1  UNL1        0.2101
    107 H          12.8427    3.7264    0.0000 H       1  UNL1        0.2100
    108 H          10.2436    3.9764    0.0000 H       1  UNL1        0.0937
    109 H           8.8414    3.7810    0.0000 H       1  UNL1        0.0671
    110 H           7.9711    4.8976    0.0000 H       1  UNL1        0.0647
    111 H           9.7661    6.5695    0.0000 H       1  UNL1        0.0587
    112 H           8.9691    6.5664    0.0000 H       1  UNL1        0.0587
    113 H           8.5030    6.2097    0.0000 H       1  UNL1        0.0643
    114 H           8.8453    2.7810    0.0000 H       1  UNL1        0.2101
    115 H           7.1070    4.3943    0.0000 H       1  UNL1        0.2100
    116 H           7.6350    6.7063    0.0000 H       1  UNL1        0.2100
@<TRIPOS>BOND
     1    29     1    1
     2    43     1    1
     3    27     2    1
     4     2    92    1
     5     3    40    1
     6     3   100    1
     7     4    40    2
     8     5    43    1
     9     5    46    1
    10    44     6    1
    11     6   106    1
    12    45     7    1
    13     7   107    1
    14    47     8    1
    15    48     8    1
    16     9    48    1
    17     9    51    1
    18    49    10    1
    19    10   114    1
    20    50    11    1
    21    11   115    1
    22    52    12    1
    23    12   116    1
    24    13    14    1
    25    13    16    1
    26    13    18    1
    27    13    28    1
    28    14    15    1
    29    14    23    1
    30    14    53    1
    31    15    17    1
    32    15    24    1
    33    15    30    1
    34    16    21    1
    35    16    25    1
    36    16    33    1
    37    17    19    1
    38    17    20    1
    39    17    54    1
    40    18    19    1
    41    18    55    1
    42    18    56    1
    43    19    57    1
    44    19    58    1
    45    20    29    1
    46    20    37    1
    47    20    38    1
    48    21    22    1
    49    21    31    2
    50    22    26    1
    51    22    34    1
    52    22    59    1
    53    23    31    1
    54    23    60    1
    55    23    61    1
    56    24    32    1
    57    24    62    1
    58    24    63    1
    59    25    27    1
    60    25    64    1
    61    25    65    1
    62    26    27    1
    63    26    35    1
    64    26    40    1
    65    27    66    1
    66    28    67    1
    67    28    68    1
    68    28    69    1
    69    29    32    1
    70    29    70    1
    71    30    71    1
    72    30    72    1
    73    30    73    1
    74    31    74    1
    75    32    75    1
    76    32    76    1
    77    33    77    1
    78    33    78    1
    79    33    79    1
    80    34    36    1
    81    34    80    1
    82    34    81    1
    83    35    39    1
    84    35    82    1
    85    35    83    1
    86    36    39    1
    87    36    41    1
    88    36    42    1
    89    37    84    1
    90    37    85    1
    91    37    86    1
    92    38    87    1
    93    38    88    1
    94    38    89    1
    95    39    90    1
    96    39    91    1
    97    41    95    1
    98    41    96    1
    99    41    97    1
   100    42    93    1
   101    42    94    1
   102    42    98    1
   103    43    44    1
   104    43    99    1
   105    44    45    1
   106    44   101    1
   107    45    47    1
   108    45   102    1
   109    46    47    1
   110    46   103    1
   111    46   104    1
   112    47   105    1
   113    48    49    1
   114    48   108    1
   115    49    50    1
   116    49   109    1
   117    50    52    1
   118    50   110    1
   119    51    52    1
   120    51   111    1
   121    51   112    1
   122    52   113    1
