@<TRIPOS>MOLECULE
IMPHY016682
 18 17 0 0 0
SMALL
GASTEIGER

@<TRIPOS>ATOM
      1 N           2.0000   -0.5000    0.0000 N.1     1  UNL1       -0.1966
      2 C           5.4641    0.5000    0.0000 C.3     1  UNL1       -0.0524
      3 C           4.5981    0.0000    0.0000 C.3     1  UNL1       -0.0402
      4 C           6.3301    0.0000    0.0000 C.3     1  UNL1       -0.0559
      5 C           3.7320    0.5000    0.0000 C.3     1  UNL1        0.0348
      6 C           7.1962    0.5000    0.0000 C.3     1  UNL1       -0.0653
      7 C           2.8660   -0.0000    0.0000 C.1     1  UNL1        0.0625
      8 H           5.8626    0.9749    0.0000 H       1  UNL1        0.0265
      9 H           5.0656    0.9749    0.0000 H       1  UNL1        0.0265
     10 H           4.1996   -0.4749    0.0000 H       1  UNL1        0.0275
     11 H           4.9966   -0.4749    0.0000 H       1  UNL1        0.0275
     12 H           5.9316   -0.4749    0.0000 H       1  UNL1        0.0263
     13 H           6.7287   -0.4749    0.0000 H       1  UNL1        0.0263
     14 H           4.1306    0.9749    0.0000 H       1  UNL1        0.0418
     15 H           3.3335    0.9749    0.0000 H       1  UNL1        0.0418
     16 H           7.5062   -0.0369    0.0000 H       1  UNL1        0.0230
     17 H           7.7331    0.8100    0.0000 H       1  UNL1        0.0230
     18 H           6.8862    1.0369    0.0000 H       1  UNL1        0.0230
@<TRIPOS>BOND
     1     1     7    3
     2     2     3    1
     3     2     4    1
     4     2     8    1
     5     2     9    1
     6     3     5    1
     7     3    10    1
     8     3    11    1
     9     4     6    1
    10     4    12    1
    11     4    13    1
    12     5     7    1
    13     5    14    1
    14     5    15    1
    15     6    16    1
    16     6    17    1
    17     6    18    1
