@<TRIPOS>MOLECULE
IMPHY009679
 48 53 0 0 0
SMALL
GASTEIGER

@<TRIPOS>ATOM
      1 O           3.8076    1.3444    0.0000 O.3     1  UNL1       -0.4599
      2 O           8.5621   -2.9547    0.0000 O.2     1  UNL1       -0.3007
      3 O           5.0332    2.5682    0.0000 O.2     1  UNL1       -0.2512
      4 N           6.1798   -0.8097    0.0000 N.3     1  UNL1       -0.2875
      5 N           4.0899   -1.7652    0.0000 N.2     1  UNL1       -0.2536
      6 C           6.4862    0.6318    0.0000 C.3     1  UNL1        0.0166
      7 C           5.9169   -0.0005    0.0000 C.3     1  UNL1        0.0191
      8 C           4.5153   -0.4559    0.0000 C.3     1  UNL1        0.0760
      9 C           6.7056   -2.4281    0.0000 C.3     1  UNL1       -0.0209
     10 C           4.5142    0.6368    0.0000 C.3     1  UNL1        0.1223
     11 C           5.6105   -1.4420    0.0000 C.3     1  UNL1        0.0507
     12 C           5.0846    0.1764    0.0000 C.3     1  UNL1       -0.0185
     13 C           5.8734   -2.2512    0.0000 C.3     1  UNL1       -0.0281
     14 C           7.2750   -1.7958    0.0000 C.3     1  UNL1        0.0331
     15 C           4.7782   -1.2651    0.0000 C.2     1  UNL1        0.0507
     16 C           7.0121   -0.9866    0.0000 C.3     1  UNL1        0.0180
     17 C           3.6645   -0.4559    0.0000 C.ar    1  UNL1       -0.0067
     18 C           7.6812   -0.2434    0.0000 C.3     1  UNL1       -0.0488
     19 C           3.4016   -1.2651    0.0000 C.ar    1  UNL1        0.0681
     20 C           8.2531   -2.0037    0.0000 C.2     1  UNL1        0.1251
     21 C           3.0952    0.1764    0.0000 C.ar    1  UNL1       -0.0555
     22 C           2.5693   -1.4420    0.0000 C.ar    1  UNL1       -0.0360
     23 C           4.0671    2.3101    0.0000 C.2     1  UNL1        0.3043
     24 C           2.2629   -0.0005    0.0000 C.ar    1  UNL1       -0.0613
     25 C           2.0000   -0.8097    0.0000 C.ar    1  UNL1       -0.0597
     26 C           3.3605    3.0177    0.0000 C.3     1  UNL1        0.0332
     27 H           7.0661    1.2533    0.0000 H       1  UNL1        0.0355
     28 H           5.7347    0.8298    0.0000 H       1  UNL1        0.0467
     29 H           6.9683   -3.2365    0.0000 H       1  UNL1        0.0313
     30 H           4.7523    1.2092    0.0000 H       1  UNL1        0.0750
     31 H           5.0417   -2.0736    0.0000 H       1  UNL1        0.0525
     32 H           5.3169    0.7513    0.0000 H       1  UNL1        0.0294
     33 H           4.5588    0.5050    0.0000 H       1  UNL1        0.0294
     34 H           5.2594   -2.3374    0.0000 H       1  UNL1        0.0287
     35 H           5.8518   -2.8708    0.0000 H       1  UNL1        0.0287
     36 H           7.4666   -2.3854    0.0000 H       1  UNL1        0.0393
     37 H           6.8205   -0.3969    0.0000 H       1  UNL1        0.0467
     38 H           8.1419   -0.6583    0.0000 H       1  UNL1        0.0245
     39 H           8.0960    0.2173    0.0000 H       1  UNL1        0.0245
     40 H           7.2204    0.1714    0.0000 H       1  UNL1        0.0245
     41 H           8.6680   -1.5429    0.0000 H       1  UNL1        0.1030
     42 H           3.2868    0.7661    0.0000 H       1  UNL1        0.0621
     43 H           2.3777   -2.0316    0.0000 H       1  UNL1        0.0639
     44 H           1.8481    0.4603    0.0000 H       1  UNL1        0.0618
     45 H           1.3936   -0.9386    0.0000 H       1  UNL1        0.0618
     46 H           3.7992    3.4558    0.0000 H       1  UNL1        0.0342
     47 H           2.9224    3.4564    0.0000 H       1  UNL1        0.0342
     48 H           2.9217    2.5796    0.0000 H       1  UNL1        0.0342
@<TRIPOS>BOND
     1    10     1    1
     2     1    23    1
     3     2    20    2
     4     3    23    2
     5     4     7    1
     6     4    11    1
     7     4    16    1
     8     5    15    2
     9     5    19    1
    10     6     7    1
    11     6     9    1
    12     6    10    1
    13     6    27    1
    14     7    12    1
    15     7    28    1
    16     8    10    1
    17     8    12    1
    18     8    15    1
    19     8    17    1
    20     9    13    1
    21     9    14    1
    22     9    29    1
    23    10    30    1
    24    11    13    1
    25    11    15    1
    26    11    31    1
    27    12    32    1
    28    12    33    1
    29    13    34    1
    30    13    35    1
    31    14    16    1
    32    14    20    1
    33    14    36    1
    34    16    18    1
    35    16    37    1
    36    17    19   ar
    37    17    21   ar
    38    18    38    1
    39    18    39    1
    40    18    40    1
    41    19    22   ar
    42    20    41    1
    43    21    24   ar
    44    21    42    1
    45    22    25   ar
    46    22    43    1
    47    23    26    1
    48    24    25   ar
    49    24    44    1
    50    25    45    1
    51    26    46    1
    52    26    47    1
    53    26    48    1
