@<TRIPOS>MOLECULE
IMPHY017661
 50 50 0 0 0
SMALL
GASTEIGER

@<TRIPOS>ATOM
      1 O           7.7331    1.5000    0.0000 O.2     1  UNL1       -0.2927
      2 O           4.2690    5.5000    0.0000 O.3     1  UNL1       -0.4915
      3 O           2.5369    4.5000    0.0000 O.3     1  UNL1       -0.5033
      4 C           8.5991   -3.0000    0.0000 C.3     1  UNL1       -0.0528
      5 C           9.4651   -3.5000    0.0000 C.3     1  UNL1       -0.0531
      6 C           8.5991   -2.0000    0.0000 C.3     1  UNL1       -0.0496
      7 C           9.4651   -4.5000    0.0000 C.3     1  UNL1       -0.0533
      8 C           7.7331   -1.5000    0.0000 C.3     1  UNL1       -0.0344
      9 C          10.3312   -5.0000    0.0000 C.3     1  UNL1       -0.0559
     10 C           7.7331   -0.5000    0.0000 C.2     1  UNL1       -0.0807
     11 C          10.3312   -6.0000    0.0000 C.3     1  UNL1       -0.0653
     12 C           6.0010    2.5000    0.0000 C.3     1  UNL1       -0.0206
     13 C           6.0010    1.5000    0.0000 C.3     1  UNL1        0.0138
     14 C           6.8671    0.0000    0.0000 C.2     1  UNL1       -0.0231
     15 C           5.1350    3.0000    0.0000 C.ar    1  UNL1       -0.0433
     16 C           6.8671    1.0000    0.0000 C.2     1  UNL1        0.1561
     17 C           5.1350    4.0000    0.0000 C.ar    1  UNL1       -0.0131
     18 C           4.2690    2.5000    0.0000 C.ar    1  UNL1       -0.0549
     19 C           4.2690    4.5000    0.0000 C.ar    1  UNL1        0.1615
     20 C           3.4030    3.0000    0.0000 C.ar    1  UNL1       -0.0163
     21 C           3.4030    4.0000    0.0000 C.ar    1  UNL1        0.1585
     22 C           5.1350    6.0000    0.0000 C.3     1  UNL1        0.0790
     23 H           7.9885   -2.8923    0.0000 H       1  UNL1        0.0265
     24 H           8.3871   -3.5826    0.0000 H       1  UNL1        0.0265
     25 H          10.0757   -3.6077    0.0000 H       1  UNL1        0.0265
     26 H           9.6772   -2.9174    0.0000 H       1  UNL1        0.0265
     27 H           9.2097   -2.1077    0.0000 H       1  UNL1        0.0268
     28 H           8.8112   -1.4174    0.0000 H       1  UNL1        0.0268
     29 H           8.8546   -4.3923    0.0000 H       1  UNL1        0.0265
     30 H           9.2531   -5.0826    0.0000 H       1  UNL1        0.0265
     31 H           7.1225   -1.3923    0.0000 H       1  UNL1        0.0307
     32 H           7.5210   -2.0826    0.0000 H       1  UNL1        0.0307
     33 H          10.9417   -5.1077    0.0000 H       1  UNL1        0.0263
     34 H          10.5432   -4.4174    0.0000 H       1  UNL1        0.0263
     35 H           8.2700   -0.1900    0.0000 H       1  UNL1        0.0573
     36 H           9.7112   -6.0000    0.0000 H       1  UNL1        0.0230
     37 H          10.3312   -6.6200    0.0000 H       1  UNL1        0.0230
     38 H          10.9512   -6.0000    0.0000 H       1  UNL1        0.0230
     39 H           6.6116    2.3923    0.0000 H       1  UNL1        0.0317
     40 H           6.2131    3.0826    0.0000 H       1  UNL1        0.0317
     41 H           5.3905    1.6077    0.0000 H       1  UNL1        0.0348
     42 H           5.7890    0.9174    0.0000 H       1  UNL1        0.0348
     43 H           6.3301   -0.3100    0.0000 H       1  UNL1        0.0649
     44 H           5.6720    4.3100    0.0000 H       1  UNL1        0.0658
     45 H           4.2690    1.8800    0.0000 H       1  UNL1        0.0621
     46 H           2.8660    2.6900    0.0000 H       1  UNL1        0.0655
     47 H           2.0000    4.1900    0.0000 H       1  UNL1        0.2923
     48 H           5.4450    5.4631    0.0000 H       1  UNL1        0.0660
     49 H           5.6720    6.3100    0.0000 H       1  UNL1        0.0660
     50 H           4.8250    6.5369    0.0000 H       1  UNL1        0.0660
@<TRIPOS>BOND
     1     1    16    2
     2     2    19    1
     3     2    22    1
     4     3    21    1
     5     3    47    1
     6     4     5    1
     7     4     6    1
     8     4    23    1
     9     4    24    1
    10     5     7    1
    11     5    25    1
    12     5    26    1
    13     6     8    1
    14     6    27    1
    15     6    28    1
    16     7     9    1
    17     7    29    1
    18     7    30    1
    19     8    10    1
    20     8    31    1
    21     8    32    1
    22     9    11    1
    23     9    33    1
    24     9    34    1
    25    10    14    2
    26    10    35    1
    27    11    36    1
    28    11    37    1
    29    11    38    1
    30    12    13    1
    31    12    15    1
    32    12    39    1
    33    12    40    1
    34    13    16    1
    35    13    41    1
    36    13    42    1
    37    14    16    1
    38    14    43    1
    39    15    17   ar
    40    15    18   ar
    41    17    19   ar
    42    17    44    1
    43    18    20   ar
    44    18    45    1
    45    19    21   ar
    46    20    21   ar
    47    20    46    1
    48    22    48    1
    49    22    49    1
    50    22    50    1
