@<TRIPOS>MOLECULE
IMPHY005897
 61 66 0 0 0
SMALL
GASTEIGER

@<TRIPOS>ATOM
      1 O           6.3580    2.0010    0.0000 O.2     1  UNL1       -0.4537
      2 O           6.3301   -1.9643    0.0000 O.2     1  UNL1       -0.4544
      3 O           2.8660    2.0357    0.0000 O.3     1  UNL1       -0.4943
      4 O           4.5981    5.0357    0.0000 O.3     1  UNL1       -0.5058
      5 O           2.8660    1.0357    0.0000 O.3     1  UNL1       -0.5062
      6 O           6.3465    5.0702    0.0000 O.2     1  UNL1       -0.2869
      7 O           8.9282   -0.4643    0.0000 O.2     1  UNL1       -0.2869
      8 O           9.8324   -1.9612    0.0000 O.3     1  UNL1       -0.5058
      9 O           8.0743   -5.0336    0.0000 O.3     1  UNL1       -0.5065
     10 O          10.7205    0.5015    0.0000 O.3     1  UNL1       -0.5068
     11 C           4.5981    2.0357    0.0000 C.ar    1  UNL1        0.0704
     12 C           5.4641    2.5357    0.0000 C.ar    1  UNL1        0.1541
     13 C           4.5981    1.0357    0.0000 C.ar    1  UNL1        0.0313
     14 C           5.4641    3.5357    0.0000 C.ar    1  UNL1        0.1061
     15 C           3.7320    2.5357    0.0000 C.ar    1  UNL1        0.1349
     16 C           5.4641    0.5357    0.0000 C.ar    1  UNL1       -0.0396
     17 C           5.4641   -0.4643    0.0000 C.ar    1  UNL1        0.0182
     18 C           4.5981    4.0357    0.0000 C.ar    1  UNL1        0.1347
     19 C           3.7320    0.5357    0.0000 C.ar    1  UNL1        0.1248
     20 C           3.7320    3.5357    0.0000 C.ar    1  UNL1        0.0231
     21 C           6.3580    4.0703    0.0000 C.ar    1  UNL1        0.1966
     22 C           7.2641    2.5148    0.0000 C.ar    1  UNL1        0.1393
     23 C           6.3301   -0.9643    0.0000 C.ar    1  UNL1        0.1392
     24 C           4.5981   -0.9643    0.0000 C.ar    1  UNL1       -0.0476
     25 C           7.2641    3.5565    0.0000 C.ar    1  UNL1        0.0288
     26 C           3.7320   -0.4643    0.0000 C.ar    1  UNL1       -0.0189
     27 C           8.1282    2.0115    0.0000 C.ar    1  UNL1        0.0176
     28 C           8.0622   -1.9643    0.0000 C.ar    1  UNL1        0.1055
     29 C           7.1962   -2.4643    0.0000 C.ar    1  UNL1        0.1462
     30 C           7.1962   -0.4643    0.0000 C.ar    1  UNL1        0.0288
     31 C           8.0622   -0.9643    0.0000 C.ar    1  UNL1        0.1966
     32 C           8.9722   -2.4712    0.0000 C.ar    1  UNL1        0.1347
     33 C           7.1801   -3.5058    0.0000 C.ar    1  UNL1        0.0231
     34 C           8.1244    1.0115    0.0000 C.ar    1  UNL1       -0.0476
     35 C           8.9962    2.5082    0.0000 C.ar    1  UNL1       -0.0476
     36 C           8.0781   -4.0336    0.0000 C.ar    1  UNL1        0.1239
     37 C           8.9802   -3.5128    0.0000 C.ar    1  UNL1        0.0223
     38 C           2.0000    2.5357    0.0000 C.3     1  UNL1        0.0788
     39 C           8.9884    0.5082    0.0000 C.ar    1  UNL1       -0.0195
     40 C           9.8602    2.0048    0.0000 C.ar    1  UNL1       -0.0195
     41 C           9.8564    1.0048    0.0000 C.ar    1  UNL1        0.1169
     42 H           6.0010    0.8457    0.0000 H       1  UNL1        0.0632
     43 H           3.1951    3.8457    0.0000 H       1  UNL1        0.0691
     44 H           4.5981   -1.5843    0.0000 H       1  UNL1        0.0626
     45 H           7.7998    3.8685    0.0000 H       1  UNL1        0.0693
     46 H           3.1951   -0.7743    0.0000 H       1  UNL1        0.0654
     47 H           7.1962    0.1557    0.0000 H       1  UNL1        0.0693
     48 H           6.6396   -3.8096    0.0000 H       1  UNL1        0.0691
     49 H           7.5862    0.7036    0.0000 H       1  UNL1        0.0626
     50 H           8.9985    3.1282    0.0000 H       1  UNL1        0.0626
     51 H           4.0611    5.3457    0.0000 H       1  UNL1        0.2922
     52 H           2.3291    0.7257    0.0000 H       1  UNL1        0.2922
     53 H           9.5183   -3.8207    0.0000 H       1  UNL1        0.0691
     54 H           2.3100    3.0726    0.0000 H       1  UNL1        0.0660
     55 H           1.4631    2.8457    0.0000 H       1  UNL1        0.0660
     56 H           1.6900    1.9987    0.0000 H       1  UNL1        0.0660
     57 H           8.9860   -0.1118    0.0000 H       1  UNL1        0.0654
     58 H          10.3984    2.3128    0.0000 H       1  UNL1        0.0654
     59 H          10.3728   -2.2650    0.0000 H       1  UNL1        0.2922
     60 H           8.6100   -5.3457    0.0000 H       1  UNL1        0.2921
     61 H          11.2586    0.8094    0.0000 H       1  UNL1        0.2921
@<TRIPOS>BOND
     1     1    12   ar
     2     1    22   ar
     3     2    23   ar
     4     2    29   ar
     5     3    15    1
     6     3    38    1
     7     4    18    1
     8     4    51    1
     9     5    19    1
    10     5    52    1
    11     6    21    2
    12     7    31    2
    13     8    32    1
    14     8    59    1
    15     9    36    1
    16     9    60    1
    17    10    41    1
    18    10    61    1
    19    11    12   ar
    20    11    13    1
    21    11    15   ar
    22    12    14   ar
    23    13    16   ar
    24    13    19   ar
    25    14    18   ar
    26    14    21   ar
    27    15    20   ar
    28    16    17   ar
    29    16    42    1
    30    17    23    1
    31    17    24   ar
    32    18    20   ar
    33    19    26   ar
    34    20    43    1
    35    21    25   ar
    36    22    25   ar
    37    22    27    1
    38    23    30   ar
    39    24    26   ar
    40    24    44    1
    41    25    45    1
    42    26    46    1
    43    27    34   ar
    44    27    35   ar
    45    28    29   ar
    46    28    31   ar
    47    28    32   ar
    48    29    33   ar
    49    30    31   ar
    50    30    47    1
    51    32    37   ar
    52    33    36   ar
    53    33    48    1
    54    34    39   ar
    55    34    49    1
    56    35    40   ar
    57    35    50    1
    58    36    37   ar
    59    37    53    1
    60    38    54    1
    61    38    55    1
    62    38    56    1
    63    39    41   ar
    64    39    57    1
    65    40    41   ar
    66    40    58    1
