@<TRIPOS>MOLECULE
IMPHY010100
 111 110 0 0 0
SMALL
GASTEIGER

@<TRIPOS>ATOM
      1 O          19.3205    1.6550    0.0000 O.3     1  UNL1       -0.3859
      2 O          16.7224   -0.8450    0.0000 O.2     1  UNL1       -0.2758
      3 O          17.5885   -1.3450    0.0000 O.3     1  UNL1       -0.3931
      4 N          17.5885    0.6550    0.0000 N.am    1  UNL1       -0.3075
      5 C           9.7942    0.1550    0.0000 C.3     1  UNL1       -0.0531
      6 C           8.9282    0.6550    0.0000 C.3     1  UNL1       -0.0531
      7 C          10.6603    0.6550    0.0000 C.3     1  UNL1       -0.0531
      8 C           8.0622    0.1550    0.0000 C.3     1  UNL1       -0.0531
      9 C          11.5263    0.1550    0.0000 C.3     1  UNL1       -0.0531
     10 C           7.1962    0.6550    0.0000 C.3     1  UNL1       -0.0531
     11 C          12.3923    0.6550    0.0000 C.3     1  UNL1       -0.0531
     12 C           6.3301    0.1550    0.0000 C.3     1  UNL1       -0.0531
     13 C          13.2583    0.1550    0.0000 C.3     1  UNL1       -0.0530
     14 C           5.4641    0.6550    0.0000 C.3     1  UNL1       -0.0531
     15 C          26.2487    0.6550    0.0000 C.3     1  UNL1       -0.0531
     16 C          14.1244    0.6550    0.0000 C.3     1  UNL1       -0.0526
     17 C          27.1147    0.1550    0.0000 C.3     1  UNL1       -0.0531
     18 C          25.3827    0.1550    0.0000 C.3     1  UNL1       -0.0531
     19 C          27.9808    0.6550    0.0000 C.3     1  UNL1       -0.0531
     20 C          24.5167    0.6550    0.0000 C.3     1  UNL1       -0.0530
     21 C          28.8468    0.1550    0.0000 C.3     1  UNL1       -0.0531
     22 C           4.5981    0.1550    0.0000 C.3     1  UNL1       -0.0531
     23 C          23.6506    0.1550    0.0000 C.3     1  UNL1       -0.0528
     24 C          14.9904    0.1550    0.0000 C.3     1  UNL1       -0.0448
     25 C          29.7128    0.6550    0.0000 C.3     1  UNL1       -0.0531
     26 C          22.7846    0.6550    0.0000 C.3     1  UNL1       -0.0496
     27 C           3.7320    0.6550    0.0000 C.3     1  UNL1       -0.0533
     28 C          15.8564    0.6550    0.0000 C.3     1  UNL1        0.0240
     29 C          30.5788    0.1550    0.0000 C.3     1  UNL1       -0.0533
     30 C          21.9186    0.1550    0.0000 C.3     1  UNL1       -0.0347
     31 CA         18.4545    0.1550    0.0000 C.3     1  UNL1        0.0756
     32 C           2.8660    0.1550    0.0000 C.3     1  UNL1       -0.0559
     33 C          19.3205    0.6550    0.0000 C.3     1  UNL1        0.0938
     34 C          16.7224    0.1550    0.0000 C.2     1  UNL1        0.2134
     35 C          31.4449    0.6550    0.0000 C.3     1  UNL1       -0.0559
     36 C          21.0526    0.6550    0.0000 C.2     1  UNL1       -0.0855
     37 C          20.1865    0.1550    0.0000 C.2     1  UNL1       -0.0580
     38 C          18.4545   -0.8450    0.0000 C.3     1  UNL1        0.0653
     39 C           2.0000    0.6550    0.0000 C.3     1  UNL1       -0.0653
     40 C          32.3109    0.1550    0.0000 C.3     1  UNL1       -0.0653
     41 H           9.3957   -0.3199    0.0000 H       1  UNL1        0.0265
     42 H          10.1928   -0.3199    0.0000 H       1  UNL1        0.0265
     43 H           9.3267    1.1300    0.0000 H       1  UNL1        0.0265
     44 H           8.5297    1.1300    0.0000 H       1  UNL1        0.0265
     45 H          11.0588    1.1300    0.0000 H       1  UNL1        0.0265
     46 H          10.2617    1.1300    0.0000 H       1  UNL1        0.0265
     47 H           7.6636   -0.3199    0.0000 H       1  UNL1        0.0265
     48 H           8.4607   -0.3199    0.0000 H       1  UNL1        0.0265
     49 H          11.1278   -0.3199    0.0000 H       1  UNL1        0.0265
     50 H          11.9248   -0.3199    0.0000 H       1  UNL1        0.0265
     51 H           7.5947    1.1300    0.0000 H       1  UNL1        0.0265
     52 H           6.7976    1.1300    0.0000 H       1  UNL1        0.0265
     53 H          12.7908    1.1300    0.0000 H       1  UNL1        0.0265
     54 H          11.9938    1.1300    0.0000 H       1  UNL1        0.0265
     55 H           5.9316   -0.3199    0.0000 H       1  UNL1        0.0265
     56 H           6.7287   -0.3199    0.0000 H       1  UNL1        0.0265
     57 H          12.8598   -0.3199    0.0000 H       1  UNL1        0.0265
     58 H          13.6569   -0.3199    0.0000 H       1  UNL1        0.0265
     59 H           5.8626    1.1300    0.0000 H       1  UNL1        0.0265
     60 H           5.0656    1.1300    0.0000 H       1  UNL1        0.0265
     61 H          26.6472    1.1300    0.0000 H       1  UNL1        0.0265
     62 H          25.8502    1.1300    0.0000 H       1  UNL1        0.0265
     63 H          26.7162   -0.3199    0.0000 H       1  UNL1        0.0265
     64 H          27.5133   -0.3199    0.0000 H       1  UNL1        0.0265
     65 H          14.5229    1.1300    0.0000 H       1  UNL1        0.0265
     66 H          13.7258    1.1300    0.0000 H       1  UNL1        0.0265
     67 H          24.9842   -0.3199    0.0000 H       1  UNL1        0.0265
     68 H          25.7812   -0.3199    0.0000 H       1  UNL1        0.0265
     69 H          28.3793    1.1300    0.0000 H       1  UNL1        0.0265
     70 H          27.5822    1.1300    0.0000 H       1  UNL1        0.0265
     71 H          24.9152    1.1300    0.0000 H       1  UNL1        0.0265
     72 H          24.1181    1.1300    0.0000 H       1  UNL1        0.0265
     73 H          28.4483   -0.3199    0.0000 H       1  UNL1        0.0265
     74 H          29.2453   -0.3199    0.0000 H       1  UNL1        0.0265
     75 H           4.1996   -0.3199    0.0000 H       1  UNL1        0.0265
     76 H           4.9966   -0.3199    0.0000 H       1  UNL1        0.0265
     77 H          23.2521   -0.3199    0.0000 H       1  UNL1        0.0265
     78 H          24.0492   -0.3199    0.0000 H       1  UNL1        0.0265
     79 H          14.5919   -0.3199    0.0000 H       1  UNL1        0.0270
     80 H          15.3889   -0.3199    0.0000 H       1  UNL1        0.0270
     81 H          30.1113    1.1300    0.0000 H       1  UNL1        0.0265
     82 H          29.3143    1.1300    0.0000 H       1  UNL1        0.0265
     83 H          23.1831    1.1300    0.0000 H       1  UNL1        0.0268
     84 H          22.3861    1.1300    0.0000 H       1  UNL1        0.0268
     85 H           4.1306    1.1300    0.0000 H       1  UNL1        0.0265
     86 H           3.3335    1.1300    0.0000 H       1  UNL1        0.0265
     87 H          16.2549    1.1300    0.0000 H       1  UNL1        0.0358
     88 H          15.4579    1.1300    0.0000 H       1  UNL1        0.0358
     89 H          30.1803   -0.3199    0.0000 H       1  UNL1        0.0265
     90 H          30.9774   -0.3199    0.0000 H       1  UNL1        0.0265
     91 H          21.5201   -0.3199    0.0000 H       1  UNL1        0.0307
     92 H          22.3171   -0.3199    0.0000 H       1  UNL1        0.0307
     93 HA         18.4545    0.7750    0.0000 H       1  UNL1        0.0550
     94 H           2.4675   -0.3199    0.0000 H       1  UNL1        0.0263
     95 H           3.2646   -0.3199    0.0000 H       1  UNL1        0.0263
     96 H          19.8574    0.9650    0.0000 H       1  UNL1        0.0657
     97 H          31.8434    1.1300    0.0000 H       1  UNL1        0.0263
     98 H          31.0463    1.1300    0.0000 H       1  UNL1        0.0263
     99 H          17.5885    1.2750    0.0000 H       1  UNL1        0.1492
    100 H          21.0526    1.2750    0.0000 H       1  UNL1        0.0570
    101 H          20.1865   -0.4650    0.0000 H       1  UNL1        0.0595
    102 H1         18.6665   -1.4276    0.0000 H       1  UNL1        0.0576
    103 H2         19.0651   -0.7373    0.0000 H       1  UNL1        0.0576
    104 H           2.3100    1.1919    0.0000 H       1  UNL1        0.0230
    105 H           1.4631    0.9650    0.0000 H       1  UNL1        0.0230
    106 H           1.6900    0.1181    0.0000 H       1  UNL1        0.0230
    107 H          32.0009   -0.3819    0.0000 H       1  UNL1        0.0230
    108 H          32.8478   -0.1550    0.0000 H       1  UNL1        0.0230
    109 H          32.6209    0.6919    0.0000 H       1  UNL1        0.0230
    110 H          19.8574    1.9650    0.0000 H       1  UNL1        0.2103
    111 H          17.5885   -1.9650    0.0000 H       1  UNL1        0.2095
@<TRIPOS>BOND
     1    33     1    1
     2     1   110    1
     3     2    34    2
     4     3    38    1
     5     3   111    1
     6    31     4    1
     7     4    34   am
     8     4    99    1
     9     5     6    1
    10     5     7    1
    11     5    41    1
    12     5    42    1
    13     6     8    1
    14     6    43    1
    15     6    44    1
    16     7     9    1
    17     7    45    1
    18     7    46    1
    19     8    10    1
    20     8    47    1
    21     8    48    1
    22     9    11    1
    23     9    49    1
    24     9    50    1
    25    10    12    1
    26    10    51    1
    27    10    52    1
    28    11    13    1
    29    11    53    1
    30    11    54    1
    31    12    14    1
    32    12    55    1
    33    12    56    1
    34    13    16    1
    35    13    57    1
    36    13    58    1
    37    14    22    1
    38    14    59    1
    39    14    60    1
    40    15    17    1
    41    15    18    1
    42    15    61    1
    43    15    62    1
    44    16    24    1
    45    16    65    1
    46    16    66    1
    47    17    19    1
    48    17    63    1
    49    17    64    1
    50    18    20    1
    51    18    67    1
    52    18    68    1
    53    19    21    1
    54    19    69    1
    55    19    70    1
    56    20    23    1
    57    20    71    1
    58    20    72    1
    59    21    25    1
    60    21    73    1
    61    21    74    1
    62    22    27    1
    63    22    75    1
    64    22    76    1
    65    23    26    1
    66    23    77    1
    67    23    78    1
    68    24    28    1
    69    24    79    1
    70    24    80    1
    71    25    29    1
    72    25    81    1
    73    25    82    1
    74    26    30    1
    75    26    83    1
    76    26    84    1
    77    27    32    1
    78    27    85    1
    79    27    86    1
    80    28    34    1
    81    28    87    1
    82    28    88    1
    83    29    35    1
    84    29    89    1
    85    29    90    1
    86    30    36    1
    87    30    91    1
    88    30    92    1
    89    31    33    1
    90    31    38    1
    91    31    93    1
    92    32    39    1
    93    32    94    1
    94    32    95    1
    95    33    37    1
    96    33    96    1
    97    35    40    1
    98    35    97    1
    99    35    98    1
   100    36    37    2
   101    36   100    1
   102    37   101    1
   103    38   102    1
   104    38   103    1
   105    39   104    1
   106    39   105    1
   107    39   106    1
   108    40   107    1
   109    40   108    1
   110    40   109    1
