@<TRIPOS>MOLECULE
IMPHY003340
 14 13 0 0 0
SMALL
GASTEIGER

@<TRIPOS>ATOM
      1 O           2.5369    0.2500    0.0000 O.3     1  UNL1       -0.3846
      2 O           4.2690    1.2500    0.0000 O.2     1  UNL1       -0.2950
      3 C           3.4030   -0.2500    0.0000 C.3     1  UNL1        0.1099
      4 C           4.2690    0.2500    0.0000 C.2     1  UNL1        0.1582
      5 C           3.4030   -1.2500    0.0000 C.3     1  UNL1       -0.0320
      6 C           5.1350   -0.2500    0.0000 C.3     1  UNL1       -0.0035
      7 H           3.4030    0.6000    0.0000 H       1  UNL1        0.0670
      8 H           2.7830   -1.2500    0.0000 H       1  UNL1        0.0259
      9 H           3.4030   -1.8700    0.0000 H       1  UNL1        0.0259
     10 H           4.0230   -1.2500    0.0000 H       1  UNL1        0.0259
     11 H           4.8250   -0.7869    0.0000 H       1  UNL1        0.0307
     12 H           5.6720   -0.5600    0.0000 H       1  UNL1        0.0307
     13 H           5.4450    0.2869    0.0000 H       1  UNL1        0.0307
     14 H           2.0000   -0.0600    0.0000 H       1  UNL1        0.2103
@<TRIPOS>BOND
     1     1     3    1
     2     1    14    1
     3     2     4    2
     4     3     4    1
     5     3     5    1
     6     3     7    1
     7     4     6    1
     8     5     8    1
     9     5     9    1
    10     5    10    1
    11     6    11    1
    12     6    12    1
    13     6    13    1
