@<TRIPOS>MOLECULE
IMPHY012035
 26 27 0 0 0
SMALL
GASTEIGER

@<TRIPOS>ATOM
      1 N           5.4641   -0.2500    0.0000 N.3     1  UNL1       -0.3093
      2 N           2.0000   -0.2500    0.0000 N.ar    1  UNL1       -0.2629
      3 C           4.5981    0.2500    0.0000 C.3     1  UNL1        0.0343
      4 C           4.5981    1.2500    0.0000 C.3     1  UNL1       -0.0333
      5 C           5.4641    1.7500    0.0000 C.3     1  UNL1       -0.0502
      6 C           6.3301    1.2500    0.0000 C.3     1  UNL1       -0.0404
      7 C           6.3301    0.2500    0.0000 C.3     1  UNL1       -0.0036
      8 C           3.7320   -0.2500    0.0000 C.ar    1  UNL1       -0.0124
      9 C           3.7320   -1.2500    0.0000 C.ar    1  UNL1       -0.0542
     10 C           2.8660    0.2500    0.0000 C.ar    1  UNL1        0.0322
     11 C           2.8660   -1.7500    0.0000 C.ar    1  UNL1       -0.0433
     12 C           2.0000   -1.2500    0.0000 C.ar    1  UNL1        0.0276
     13 H           4.5981   -0.3700    0.0000 H       1  UNL1        0.0510
     14 H           4.3860    1.8326    0.0000 H       1  UNL1        0.0284
     15 H           3.9875    1.1423    0.0000 H       1  UNL1        0.0284
     16 H           5.8626    2.2250    0.0000 H       1  UNL1        0.0266
     17 H           5.0656    2.2250    0.0000 H       1  UNL1        0.0266
     18 H           6.9407    1.1423    0.0000 H       1  UNL1        0.0277
     19 H           6.5422    1.8326    0.0000 H       1  UNL1        0.0277
     20 H           6.5422   -0.3326    0.0000 H       1  UNL1        0.0424
     21 H           6.9407    0.3577    0.0000 H       1  UNL1        0.0424
     22 H           5.4641   -0.8700    0.0000 H       1  UNL1        0.1225
     23 H           4.2690   -1.5600    0.0000 H       1  UNL1        0.0622
     24 H           2.8660    0.8700    0.0000 H       1  UNL1        0.0833
     25 H           2.8660   -2.3700    0.0000 H       1  UNL1        0.0633
     26 H           1.4631   -1.5600    0.0000 H       1  UNL1        0.0829
@<TRIPOS>BOND
     1     1     3    1
     2     1     7    1
     3     1    22    1
     4     2    10   ar
     5     2    12   ar
     6     3     4    1
     7     3     8    1
     8     3    13    1
     9     4     5    1
    10     4    14    1
    11     4    15    1
    12     5     6    1
    13     5    16    1
    14     5    17    1
    15     6     7    1
    16     6    18    1
    17     6    19    1
    18     7    20    1
    19     7    21    1
    20     8     9   ar
    21     8    10   ar
    22     9    11   ar
    23     9    23    1
    24    10    24    1
    25    11    12   ar
    26    11    25    1
    27    12    26    1
