@<TRIPOS>MOLECULE
IMPHY012892
 42 43 0 0 0
SMALL
GASTEIGER

@<TRIPOS>ATOM
      1 O           2.8660   -0.5000    0.0000 O.3     1  UNL1       -0.4905
      2 O           6.3301   -2.5000    0.0000 O.3     1  UNL1       -0.4884
      3 O           4.5981   -3.5000    0.0000 O.3     1  UNL1       -0.4883
      4 O           6.3301   -0.5000    0.0000 O.3     1  UNL1       -0.5027
      5 O           2.8660   -2.5000    0.0000 O.3     1  UNL1       -0.5008
      6 O           3.7320    1.0000    0.0000 O.2     1  UNL1       -0.2870
      7 C           4.5981   -0.5000    0.0000 C.ar    1  UNL1        0.1120
      8 C           3.7320   -1.0000    0.0000 C.ar    1  UNL1        0.1796
      9 C           5.4641   -1.0000    0.0000 C.ar    1  UNL1        0.1770
     10 C           5.4641   -2.0000    0.0000 C.ar    1  UNL1        0.2080
     11 C           4.5981   -2.5000    0.0000 C.ar    1  UNL1        0.2108
     12 C           3.7320   -2.0000    0.0000 C.ar    1  UNL1        0.2057
     13 C           4.5981    0.5000    0.0000 C.2     1  UNL1        0.1934
     14 C           5.4641    1.0000    0.0000 C.2     1  UNL1       -0.0135
     15 C           5.4641    2.0000    0.0000 C.2     1  UNL1       -0.0510
     16 C           6.3301    2.5000    0.0000 C.ar    1  UNL1       -0.0249
     17 C           2.0000   -1.0000    0.0000 C.3     1  UNL1        0.0790
     18 C           6.3301   -3.5000    0.0000 C.3     1  UNL1        0.0791
     19 C           3.7320   -4.0000    0.0000 C.3     1  UNL1        0.0791
     20 C           7.1962    2.0000    0.0000 C.ar    1  UNL1       -0.0546
     21 C           6.3301    3.5000    0.0000 C.ar    1  UNL1       -0.0546
     22 C           8.0622    2.5000    0.0000 C.ar    1  UNL1       -0.0612
     23 C           7.1962    4.0000    0.0000 C.ar    1  UNL1       -0.0612
     24 C           8.0622    3.5000    0.0000 C.ar    1  UNL1       -0.0617
     25 H           6.0010    0.6900    0.0000 H       1  UNL1        0.0656
     26 H           4.9272    2.3100    0.0000 H       1  UNL1        0.0625
     27 H           6.8671   -0.8100    0.0000 H       1  UNL1        0.2923
     28 H           2.8660   -3.1200    0.0000 H       1  UNL1        0.2924
     29 H           1.6900   -0.4631    0.0000 H       1  UNL1        0.0660
     30 H           1.4631   -1.3100    0.0000 H       1  UNL1        0.0660
     31 H           2.3100   -1.5369    0.0000 H       1  UNL1        0.0660
     32 H           5.7101   -3.5000    0.0000 H       1  UNL1        0.0660
     33 H           6.3301   -4.1200    0.0000 H       1  UNL1        0.0660
     34 H           6.9501   -3.5000    0.0000 H       1  UNL1        0.0660
     35 H           3.4220   -3.4631    0.0000 H       1  UNL1        0.0660
     36 H           3.1951   -4.3100    0.0000 H       1  UNL1        0.0660
     37 H           4.0420   -4.5369    0.0000 H       1  UNL1        0.0660
     38 H           7.1962    1.3800    0.0000 H       1  UNL1        0.0623
     39 H           5.7932    3.8100    0.0000 H       1  UNL1        0.0623
     40 H           8.5991    2.1900    0.0000 H       1  UNL1        0.0618
     41 H           7.1962    4.6200    0.0000 H       1  UNL1        0.0618
     42 H           8.5991    3.8100    0.0000 H       1  UNL1        0.0618
@<TRIPOS>BOND
     1     1     8    1
     2     1    17    1
     3     2    10    1
     4     2    18    1
     5     3    11    1
     6     3    19    1
     7     4     9    1
     8     4    27    1
     9     5    12    1
    10     5    28    1
    11     6    13    2
    12     7     8   ar
    13     7     9   ar
    14     7    13    1
    15     8    12   ar
    16     9    10   ar
    17    10    11   ar
    18    11    12   ar
    19    13    14    1
    20    14    15    2
    21    14    25    1
    22    15    16    1
    23    15    26    1
    24    16    20   ar
    25    16    21   ar
    26    17    29    1
    27    17    30    1
    28    17    31    1
    29    18    32    1
    30    18    33    1
    31    18    34    1
    32    19    35    1
    33    19    36    1
    34    19    37    1
    35    20    22   ar
    36    20    38    1
    37    21    23   ar
    38    21    39    1
    39    22    24   ar
    40    22    40    1
    41    23    24   ar
    42    23    41    1
    43    24    42    1
