@<TRIPOS>MOLECULE
IMPHY013746
 25 26 0 0 0
SMALL
GASTEIGER

@<TRIPOS>ATOM
      1 S           2.8660    1.0950    0.0000 S.O2    1  UNL1        0.1097
      2 O           4.5981   -1.9050    0.0000 O.3     1  UNL1       -0.5061
      3 O           2.0000    1.5950    0.0000 O.3     1  UNL1       -0.2498
      4 O           2.3660    0.2290    0.0000 O.2     1  UNL1       -0.1421
      5 O           3.3660    1.9610    0.0000 O.2     1  UNL1       -0.1421
      6 N           8.1282   -0.9292    0.0000 N.pl3   1  UNL1       -0.3579
      7 C           5.4641    0.5950    0.0000 C.ar    1  UNL1       -0.0124
      8 C           5.4641   -0.4050    0.0000 C.ar    1  UNL1        0.0254
      9 C           3.7320    0.5950    0.0000 C.ar    1  UNL1        0.1209
     10 C           4.5981    1.0950    0.0000 C.ar    1  UNL1       -0.0264
     11 C           4.5981   -0.9050    0.0000 C.ar    1  UNL1        0.1265
     12 C           3.7320   -0.4050    0.0000 C.ar    1  UNL1        0.0078
     13 C           6.3580   -0.9397    0.0000 C.ar    1  UNL1       -0.0298
     14 C           6.3580    1.1297    0.0000 C.ar    1  UNL1       -0.0521
     15 C           7.2641   -0.4258    0.0000 C.ar    1  UNL1        0.0252
     16 C           7.2641    0.6158    0.0000 C.ar    1  UNL1       -0.0405
     17 H           4.5981    1.7150    0.0000 H       1  UNL1        0.0643
     18 H           3.1951   -0.7150    0.0000 H       1  UNL1        0.0674
     19 H           6.3509   -1.5596    0.0000 H       1  UNL1        0.0643
     20 H           6.3509    1.7496    0.0000 H       1  UNL1        0.0624
     21 H           7.7998    0.9279    0.0000 H       1  UNL1        0.0636
     22 H           4.0611   -2.2150    0.0000 H       1  UNL1        0.2922
     23 H           8.6663   -0.6212    0.0000 H       1  UNL1        0.1423
     24 H           8.1258   -1.5492    0.0000 H       1  UNL1        0.1423
     25 H           2.0000    2.2150    0.0000 H       1  UNL1        0.2449
@<TRIPOS>BOND
     1     1     3    1
     2     1     4    2
     3     1     5    2
     4     1     9    1
     5     2    11    1
     6     2    22    1
     7     3    25    1
     8     6    15    1
     9     6    23    1
    10     6    24    1
    11     7     8   ar
    12     7    10   ar
    13     7    14   ar
    14     8    11   ar
    15     8    13   ar
    16     9    10   ar
    17     9    12   ar
    18    10    17    1
    19    11    12   ar
    20    12    18    1
    21    13    15   ar
    22    13    19    1
    23    14    16   ar
    24    14    20    1
    25    15    16   ar
    26    16    21    1
