@<TRIPOS>MOLECULE
IMPHY016122
 32 31 0 0 0
SMALL
GASTEIGER

@<TRIPOS>ATOM
      1 O           5.4641    0.4400    0.0000 O.3     1  UNL1       -0.3513
      2 O           3.7320    0.4400    0.0000 O.3     1  UNL1       -0.3519
      3 C           4.5981   -0.0600    0.0000 C.3     1  UNL1        0.1563
      4 C           6.3301   -0.0600    0.0000 C.3     1  UNL1        0.0540
      5 C           7.1962    0.4400    0.0000 C.3     1  UNL1       -0.0111
      6 C           8.0622   -0.0600    0.0000 C.2     1  UNL1       -0.0858
      7 C           4.5981   -1.0600    0.0000 C.3     1  UNL1       -0.0136
      8 C           2.8660   -0.0600    0.0000 C.3     1  UNL1        0.0478
      9 C           8.9282    0.4400    0.0000 C.2     1  UNL1       -0.0881
     10 C           9.7942   -0.0600    0.0000 C.3     1  UNL1       -0.0376
     11 C           2.0000    0.4400    0.0000 C.3     1  UNL1       -0.0415
     12 C          10.6603    0.4400    0.0000 C.3     1  UNL1       -0.0618
     13 H           4.5981    0.5600    0.0000 H       1  UNL1        0.0906
     14 H           5.9316   -0.5349    0.0000 H       1  UNL1        0.0564
     15 H           6.7287   -0.5349    0.0000 H       1  UNL1        0.0564
     16 H           7.5947    0.9149    0.0000 H       1  UNL1        0.0330
     17 H           6.7976    0.9149    0.0000 H       1  UNL1        0.0330
     18 H           8.0622   -0.6800    0.0000 H       1  UNL1        0.0570
     19 H           3.9781   -1.0600    0.0000 H       1  UNL1        0.0278
     20 H           4.5981   -1.6800    0.0000 H       1  UNL1        0.0278
     21 H           5.2181   -1.0600    0.0000 H       1  UNL1        0.0278
     22 H           2.4675   -0.5349    0.0000 H       1  UNL1        0.0558
     23 H           3.2646   -0.5349    0.0000 H       1  UNL1        0.0558
     24 H           8.9282    1.0600    0.0000 H       1  UNL1        0.0569
     25 H           9.3957   -0.5349    0.0000 H       1  UNL1        0.0305
     26 H          10.1928   -0.5349    0.0000 H       1  UNL1        0.0305
     27 H           2.3100    0.9769    0.0000 H       1  UNL1        0.0252
     28 H           1.4631    0.7500    0.0000 H       1  UNL1        0.0252
     29 H           1.6900   -0.0969    0.0000 H       1  UNL1        0.0252
     30 H          10.9703   -0.0969    0.0000 H       1  UNL1        0.0233
     31 H          11.1972    0.7500    0.0000 H       1  UNL1        0.0233
     32 H          10.3503    0.9769    0.0000 H       1  UNL1        0.0233
@<TRIPOS>BOND
     1     1     3    1
     2     1     4    1
     3     2     3    1
     4     2     8    1
     5     3     7    1
     6     3    13    1
     7     4     5    1
     8     4    14    1
     9     4    15    1
    10     5     6    1
    11     5    16    1
    12     5    17    1
    13     6     9    2
    14     6    18    1
    15     7    19    1
    16     7    20    1
    17     7    21    1
    18     8    11    1
    19     8    22    1
    20     8    23    1
    21     9    10    1
    22     9    24    1
    23    10    12    1
    24    10    25    1
    25    10    26    1
    26    11    27    1
    27    11    28    1
    28    11    29    1
    29    12    30    1
    30    12    31    1
    31    12    32    1
