@<TRIPOS>MOLECULE
IMPHY010116
 25 24 0 0 0
SMALL
GASTEIGER

@<TRIPOS>ATOM
      1 O           4.7690   -1.2505    0.0000 O.3     1  UNL1       -0.3752
      2 O           2.5369   -0.3845    0.0000 O.3     1  UNL1       -0.3886
      3 O           4.2690    1.3476    0.0000 O.3     1  UNL1       -0.4786
      4 O           2.7690    0.4815    0.0000 O.2     1  UNL1       -0.2476
      5 C           4.2690   -0.3845    0.0000 C.3     1  UNL1        0.1899
      6 C           5.1350    0.1155    0.0000 C.3     1  UNL1       -0.0048
      7 C           3.4030   -0.8845    0.0000 C.3     1  UNL1        0.0918
      8 C           6.0010   -0.3845    0.0000 C.3     1  UNL1       -0.0594
      9 C           5.1350    1.1155    0.0000 C.3     1  UNL1       -0.0594
     10 C           3.7690    0.4815    0.0000 C.2     1  UNL1        0.3396
     11 C           3.4030   -1.8845    0.0000 C.3     1  UNL1       -0.0357
     12 H           5.1350   -0.5045    0.0000 H       1  UNL1        0.0329
     13 H           3.4030   -0.2645    0.0000 H       1  UNL1        0.0625
     14 H           5.6910   -0.9214    0.0000 H       1  UNL1        0.0233
     15 H           6.5380   -0.6945    0.0000 H       1  UNL1        0.0233
     16 H           6.3110    0.1524    0.0000 H       1  UNL1        0.0233
     17 H           5.7550    1.1155    0.0000 H       1  UNL1        0.0233
     18 H           5.1350    1.7355    0.0000 H       1  UNL1        0.0233
     19 H           4.5150    1.1155    0.0000 H       1  UNL1        0.0233
     20 H           2.7830   -1.8845    0.0000 H       1  UNL1        0.0255
     21 H           3.4030   -2.5045    0.0000 H       1  UNL1        0.0255
     22 H           4.0230   -1.8845    0.0000 H       1  UNL1        0.0255
     23 H           4.4590   -1.7874    0.0000 H       1  UNL1        0.2110
     24 H           2.0000   -0.6945    0.0000 H       1  UNL1        0.2099
     25 H           3.9590    1.8845    0.0000 H       1  UNL1        0.2951
@<TRIPOS>BOND
     1     5     1    1
     2     1    23    1
     3     7     2    1
     4     2    24    1
     5     3    10    1
     6     3    25    1
     7     4    10    2
     8     5     6    1
     9     5     7    1
    10     5    10    1
    11     6     8    1
    12     6     9    1
    13     6    12    1
    14     7    11    1
    15     7    13    1
    16     8    14    1
    17     8    15    1
    18     8    16    1
    19     9    17    1
    20     9    18    1
    21     9    19    1
    22    11    20    1
    23    11    21    1
    24    11    22    1
