@<TRIPOS>MOLECULE
IMPHY013663
 108 107 0 0 0
SMALL
GASTEIGER

@<TRIPOS>ATOM
      1 O          28.8468   -0.5950    0.0000 O.3     1  UNL1       -0.3918
      2 O          21.0526    0.9050    0.0000 O.3     1  UNL1       -0.4646
      3 O          20.1865   -0.5950    0.0000 O.2     1  UNL1       -0.2509
      4 C          11.5263    0.4050    0.0000 C.3     1  UNL1       -0.0531
      5 C          10.6603    0.9050    0.0000 C.3     1  UNL1       -0.0531
      6 C          12.3923    0.9050    0.0000 C.3     1  UNL1       -0.0531
      7 C           9.7942    0.4050    0.0000 C.3     1  UNL1       -0.0531
      8 C          13.2583    0.4050    0.0000 C.3     1  UNL1       -0.0531
      9 C           8.9282    0.9050    0.0000 C.3     1  UNL1       -0.0531
     10 C          14.1244    0.9050    0.0000 C.3     1  UNL1       -0.0531
     11 C           8.0622    0.4050    0.0000 C.3     1  UNL1       -0.0531
     12 C          14.9904    0.4050    0.0000 C.3     1  UNL1       -0.0531
     13 C           7.1962    0.9050    0.0000 C.3     1  UNL1       -0.0531
     14 C          15.8564    0.9050    0.0000 C.3     1  UNL1       -0.0531
     15 C           6.3301    0.4050    0.0000 C.3     1  UNL1       -0.0531
     16 C          27.1147    0.4050    0.0000 C.3     1  UNL1       -0.0507
     17 C          27.9808    0.9050    0.0000 C.3     1  UNL1       -0.0269
     18 C          26.2487    0.9050    0.0000 C.3     1  UNL1       -0.0530
     19 C          16.7224    0.4050    0.0000 C.3     1  UNL1       -0.0530
     20 C          28.8468    0.4050    0.0000 C.3     1  UNL1        0.0553
     21 C           5.4641    0.9050    0.0000 C.3     1  UNL1       -0.0531
     22 C          25.3827    0.4050    0.0000 C.3     1  UNL1       -0.0531
     23 C          24.5167    0.9050    0.0000 C.3     1  UNL1       -0.0530
     24 C          17.5885    0.9050    0.0000 C.3     1  UNL1       -0.0526
     25 C          29.7128    0.9050    0.0000 C.3     1  UNL1       -0.0269
     26 C           4.5981    0.4050    0.0000 C.3     1  UNL1       -0.0531
     27 C          23.6506    0.4050    0.0000 C.3     1  UNL1       -0.0500
     28 C          18.4545    0.4050    0.0000 C.3     1  UNL1       -0.0430
     29 C          30.5788    0.4050    0.0000 C.3     1  UNL1       -0.0510
     30 C           3.7320    0.9050    0.0000 C.3     1  UNL1       -0.0533
     31 C          22.7846    0.9050    0.0000 C.3     1  UNL1       -0.0185
     32 C          19.3205    0.9050    0.0000 C.3     1  UNL1        0.0449
     33 C          31.4449    0.9050    0.0000 C.3     1  UNL1       -0.0558
     34 C           2.8660    0.4050    0.0000 C.3     1  UNL1       -0.0559
     35 C          21.9186    0.4050    0.0000 C.3     1  UNL1        0.0925
     36 C          20.1865    0.4050    0.0000 C.2     1  UNL1        0.3071
     37 C          32.3109    0.4050    0.0000 C.3     1  UNL1       -0.0653
     38 C           2.0000    0.9050    0.0000 C.3     1  UNL1       -0.0653
     39 H          11.1278   -0.0699    0.0000 H       1  UNL1        0.0265
     40 H          11.9248   -0.0699    0.0000 H       1  UNL1        0.0265
     41 H          11.0588    1.3800    0.0000 H       1  UNL1        0.0265
     42 H          10.2617    1.3800    0.0000 H       1  UNL1        0.0265
     43 H          12.7908    1.3800    0.0000 H       1  UNL1        0.0265
     44 H          11.9938    1.3800    0.0000 H       1  UNL1        0.0265
     45 H           9.3957   -0.0699    0.0000 H       1  UNL1        0.0265
     46 H          10.1928   -0.0699    0.0000 H       1  UNL1        0.0265
     47 H          12.8598   -0.0699    0.0000 H       1  UNL1        0.0265
     48 H          13.6569   -0.0699    0.0000 H       1  UNL1        0.0265
     49 H           9.3267    1.3800    0.0000 H       1  UNL1        0.0265
     50 H           8.5297    1.3800    0.0000 H       1  UNL1        0.0265
     51 H          14.5229    1.3800    0.0000 H       1  UNL1        0.0265
     52 H          13.7258    1.3800    0.0000 H       1  UNL1        0.0265
     53 H           7.6636   -0.0699    0.0000 H       1  UNL1        0.0265
     54 H           8.4607   -0.0699    0.0000 H       1  UNL1        0.0265
     55 H          14.5919   -0.0699    0.0000 H       1  UNL1        0.0265
     56 H          15.3889   -0.0699    0.0000 H       1  UNL1        0.0265
     57 H           7.5947    1.3800    0.0000 H       1  UNL1        0.0265
     58 H           6.7976    1.3800    0.0000 H       1  UNL1        0.0265
     59 H          16.2549    1.3800    0.0000 H       1  UNL1        0.0265
     60 H          15.4579    1.3800    0.0000 H       1  UNL1        0.0265
     61 H           5.9316   -0.0699    0.0000 H       1  UNL1        0.0265
     62 H           6.7287   -0.0699    0.0000 H       1  UNL1        0.0265
     63 H          26.7162   -0.0699    0.0000 H       1  UNL1        0.0266
     64 H          27.5133   -0.0699    0.0000 H       1  UNL1        0.0266
     65 H          28.3793    1.3800    0.0000 H       1  UNL1        0.0290
     66 H          27.5822    1.3800    0.0000 H       1  UNL1        0.0290
     67 H          26.6472    1.3800    0.0000 H       1  UNL1        0.0265
     68 H          25.8502    1.3800    0.0000 H       1  UNL1        0.0265
     69 H          16.3239   -0.0699    0.0000 H       1  UNL1        0.0265
     70 H          17.1210   -0.0699    0.0000 H       1  UNL1        0.0265
     71 H          29.3837    0.0950    0.0000 H       1  UNL1        0.0593
     72 H           5.8626    1.3800    0.0000 H       1  UNL1        0.0265
     73 H           5.0656    1.3800    0.0000 H       1  UNL1        0.0265
     74 H          24.9842   -0.0699    0.0000 H       1  UNL1        0.0265
     75 H          25.7812   -0.0699    0.0000 H       1  UNL1        0.0265
     76 H          24.9152    1.3800    0.0000 H       1  UNL1        0.0265
     77 H          24.1181    1.3800    0.0000 H       1  UNL1        0.0265
     78 H          17.9870    1.3800    0.0000 H       1  UNL1        0.0265
     79 H          17.1899    1.3800    0.0000 H       1  UNL1        0.0265
     80 H          30.1113    1.3800    0.0000 H       1  UNL1        0.0290
     81 H          29.3143    1.3800    0.0000 H       1  UNL1        0.0290
     82 H           4.1996   -0.0699    0.0000 H       1  UNL1        0.0265
     83 H           4.9966   -0.0699    0.0000 H       1  UNL1        0.0265
     84 H          23.2521   -0.0699    0.0000 H       1  UNL1        0.0266
     85 H          24.0492   -0.0699    0.0000 H       1  UNL1        0.0266
     86 H          18.0560   -0.0699    0.0000 H       1  UNL1        0.0270
     87 H          18.8530   -0.0699    0.0000 H       1  UNL1        0.0270
     88 H          30.1803   -0.0699    0.0000 H       1  UNL1        0.0266
     89 H          30.9774   -0.0699    0.0000 H       1  UNL1        0.0266
     90 H           4.1306    1.3800    0.0000 H       1  UNL1        0.0265
     91 H           3.3335    1.3800    0.0000 H       1  UNL1        0.0265
     92 H          23.1831    1.3800    0.0000 H       1  UNL1        0.0298
     93 H          22.3861    1.3800    0.0000 H       1  UNL1        0.0298
     94 H          19.7190    1.3800    0.0000 H       1  UNL1        0.0377
     95 H          18.9220    1.3800    0.0000 H       1  UNL1        0.0377
     96 H          31.8434    1.3800    0.0000 H       1  UNL1        0.0263
     97 H          31.0463    1.3800    0.0000 H       1  UNL1        0.0263
     98 H           2.4675   -0.0699    0.0000 H       1  UNL1        0.0263
     99 H           3.2646   -0.0699    0.0000 H       1  UNL1        0.0263
    100 H          21.5201   -0.0699    0.0000 H       1  UNL1        0.0697
    101 H          22.3171   -0.0699    0.0000 H       1  UNL1        0.0697
    102 H          29.3837   -0.9050    0.0000 H       1  UNL1        0.2098
    103 H          32.0009   -0.1319    0.0000 H       1  UNL1        0.0230
    104 H          32.8478    0.0950    0.0000 H       1  UNL1        0.0230
    105 H          32.6209    0.9419    0.0000 H       1  UNL1        0.0230
    106 H           2.3100    1.4419    0.0000 H       1  UNL1        0.0230
    107 H           1.4631    1.2150    0.0000 H       1  UNL1        0.0230
    108 H           1.6900    0.3681    0.0000 H       1  UNL1        0.0230
@<TRIPOS>BOND
     1     1    20    1
     2     1   102    1
     3     2    35    1
     4     2    36    1
     5     3    36    2
     6     4     5    1
     7     4     6    1
     8     4    39    1
     9     4    40    1
    10     5     7    1
    11     5    41    1
    12     5    42    1
    13     6     8    1
    14     6    43    1
    15     6    44    1
    16     7     9    1
    17     7    45    1
    18     7    46    1
    19     8    10    1
    20     8    47    1
    21     8    48    1
    22     9    11    1
    23     9    49    1
    24     9    50    1
    25    10    12    1
    26    10    51    1
    27    10    52    1
    28    11    13    1
    29    11    53    1
    30    11    54    1
    31    12    14    1
    32    12    55    1
    33    12    56    1
    34    13    15    1
    35    13    57    1
    36    13    58    1
    37    14    19    1
    38    14    59    1
    39    14    60    1
    40    15    21    1
    41    15    61    1
    42    15    62    1
    43    16    17    1
    44    16    18    1
    45    16    63    1
    46    16    64    1
    47    17    20    1
    48    17    65    1
    49    17    66    1
    50    18    22    1
    51    18    67    1
    52    18    68    1
    53    19    24    1
    54    19    69    1
    55    19    70    1
    56    20    25    1
    57    20    71    1
    58    21    26    1
    59    21    72    1
    60    21    73    1
    61    22    23    1
    62    22    74    1
    63    22    75    1
    64    23    27    1
    65    23    76    1
    66    23    77    1
    67    24    28    1
    68    24    78    1
    69    24    79    1
    70    25    29    1
    71    25    80    1
    72    25    81    1
    73    26    30    1
    74    26    82    1
    75    26    83    1
    76    27    31    1
    77    27    84    1
    78    27    85    1
    79    28    32    1
    80    28    86    1
    81    28    87    1
    82    29    33    1
    83    29    88    1
    84    29    89    1
    85    30    34    1
    86    30    90    1
    87    30    91    1
    88    31    35    1
    89    31    92    1
    90    31    93    1
    91    32    36    1
    92    32    94    1
    93    32    95    1
    94    33    37    1
    95    33    96    1
    96    33    97    1
    97    34    38    1
    98    34    98    1
    99    34    99    1
   100    35   100    1
   101    35   101    1
   102    37   103    1
   103    37   104    1
   104    37   105    1
   105    38   106    1
   106    38   107    1
   107    38   108    1
