@<TRIPOS>MOLECULE
IMPHY012757
 99 104 0 0 0
SMALL
GASTEIGER

@<TRIPOS>ATOM
      1 O           8.5991    2.1224    0.0000 O.3     1  UNL1       -0.3302
      2 O          14.6720    1.6068    0.0000 O.3     1  UNL1       -0.3302
      3 O          10.3312    2.1224    0.0000 O.3     1  UNL1       -0.4598
      4 O          13.8233    3.1167    0.0000 O.3     1  UNL1       -0.4515
      5 O           6.8671    0.1224    0.0000 O.3     1  UNL1       -0.3864
      6 O           8.5991   -0.8776    0.0000 O.3     1  UNL1       -0.3864
      7 O          13.7771   -0.8830    0.0000 O.3     1  UNL1       -0.3864
      8 O          12.0567    0.1370    0.0000 O.3     1  UNL1       -0.3864
      9 O          10.3312    0.1224    0.0000 O.3     1  UNL1       -0.3829
     10 O          12.0799    2.1368    0.0000 O.3     1  UNL1       -0.3829
     11 O           6.0010    1.6224    0.0000 O.3     1  UNL1       -0.4616
     12 O          15.5090   -0.9030    0.0000 O.3     1  UNL1       -0.4589
     13 O          12.1145    5.1366    0.0000 O.2     1  UNL1       -0.1997
     14 O           8.5849    5.2016    0.0000 O.3     1  UNL1       -0.5063
     15 O           5.1350    3.1224    0.0000 O.2     1  UNL1       -0.2502
     16 O          17.2410   -0.9231    0.0000 O.2     1  UNL1       -0.2456
     17 O          16.4617    6.5864    0.0000 O.3     1  UNL1       -0.5068
     18 O           2.5369    1.6224    0.0000 O.3     1  UNL1       -0.4802
     19 O           3.4030    3.1224    0.0000 O.2     1  UNL1       -0.2504
     20 O          17.1832   -5.9227    0.0000 O.3     1  UNL1       -0.5033
     21 O          15.4397   -6.9026    0.0000 O.3     1  UNL1       -0.5033
     22 C           7.7331    0.6224    0.0000 C.3     1  UNL1        0.1130
     23 C           8.5991    0.1224    0.0000 C.3     1  UNL1        0.1152
     24 C          13.7887    0.1169    0.0000 C.3     1  UNL1        0.1130
     25 C          12.9285    0.6269    0.0000 C.3     1  UNL1        0.1152
     26 C           7.7331    1.6224    0.0000 C.3     1  UNL1        0.1250
     27 C           9.4651    0.6224    0.0000 C.3     1  UNL1        0.1454
     28 C          14.6604    0.6069    0.0000 C.3     1  UNL1        0.1250
     29 C          12.9400    1.6268    0.0000 C.3     1  UNL1        0.1454
     30 C           9.4651    1.6224    0.0000 C.3     1  UNL1        0.2309
     31 C          13.8118    2.1168    0.0000 C.3     1  UNL1        0.2313
     32 C           6.8671    2.1224    0.0000 C.3     1  UNL1        0.1212
     33 C          15.5206    0.0969    0.0000 C.3     1  UNL1        0.1215
     34 C          10.3312    3.1224    0.0000 C.ar    1  UNL1        0.1437
     35 C          12.9632    3.6267    0.0000 C.ar    1  UNL1        0.2288
     36 C          11.2312    3.6467    0.0000 C.ar    1  UNL1        0.1245
     37 C          12.0914    3.1368    0.0000 C.ar    1  UNL1        0.0093
     38 C          12.9747    4.6266    0.0000 C.ar    1  UNL1        0.4045
     39 C          11.2428    4.6467    0.0000 C.ar    1  UNL1        0.3708
     40 C           9.4311    3.6467    0.0000 C.ar    1  UNL1        0.0229
     41 C          10.3551    5.1916    0.0000 C.ar    1  UNL1        0.0847
     42 C           9.4431    4.6883    0.0000 C.ar    1  UNL1        0.1293
     43 C          13.8465    5.1166    0.0000 C.ar    1  UNL1        0.0830
     44 C           5.1350    2.1224    0.0000 C.2     1  UNL1        0.3180
     45 C          16.3692   -1.4130    0.0000 C.2     1  UNL1        0.3320
     46 C           4.2690    1.6224    0.0000 C.3     1  UNL1        0.1418
     47 C          13.8580    6.1165    0.0000 C.ar    1  UNL1       -0.0420
     48 C          14.7067    4.6066    0.0000 C.ar    1  UNL1       -0.0420
     49 C          16.3577   -2.4130    0.0000 C.2     1  UNL1        0.0231
     50 C          14.7298    6.6065    0.0000 C.ar    1  UNL1       -0.0193
     51 C          15.5784    5.0966    0.0000 C.ar    1  UNL1       -0.0193
     52 C          15.5900    6.0965    0.0000 C.ar    1  UNL1        0.1169
     53 C           3.4030    2.1224    0.0000 C.2     1  UNL1        0.3155
     54 C          15.4859   -2.9029    0.0000 C.2     1  UNL1       -0.0477
     55 C          15.4743   -3.9028    0.0000 C.ar    1  UNL1       -0.0211
     56 C          16.3345   -4.4128    0.0000 C.ar    1  UNL1       -0.0094
     57 C          14.6026   -4.3928    0.0000 C.ar    1  UNL1       -0.0509
     58 C          16.3230   -5.4128    0.0000 C.ar    1  UNL1        0.1588
     59 C          14.5910   -5.3927    0.0000 C.ar    1  UNL1       -0.0160
     60 C          15.4512   -5.9027    0.0000 C.ar    1  UNL1        0.1582
     61 H           7.0815    0.9986    0.0000 H       1  UNL1        0.0647
     62 H           9.2507   -0.2538    0.0000 H       1  UNL1        0.0648
     63 H          14.4359   -0.2668    0.0000 H       1  UNL1        0.0647
     64 H          13.5844    0.9955    0.0000 H       1  UNL1        0.0648
     65 H           8.3847    1.2462    0.0000 H       1  UNL1        0.0658
     66 H           9.4652   -0.1300    0.0000 H       1  UNL1        0.0683
     67 H          14.0132    0.9906    0.0000 H       1  UNL1        0.0658
     68 H          12.2841    1.2581    0.0000 H       1  UNL1        0.0683
     69 H           9.4652    2.3748    0.0000 H       1  UNL1        0.1084
     70 H          14.4677    2.4854    0.0000 H       1  UNL1        0.1084
     71 H           6.4910    2.7740    0.0000 H       1  UNL1        0.0724
     72 H           7.2434    2.7740    0.0000 H       1  UNL1        0.0724
     73 H          15.9044    0.7441    0.0000 H       1  UNL1        0.0725
     74 H          16.2730    0.0881    0.0000 H       1  UNL1        0.0725
     75 H           6.2155   -0.2538    0.0000 H       1  UNL1        0.2100
     76 H           8.5991   -1.6300    0.0000 H       1  UNL1        0.2100
     77 H          13.7684   -1.6354    0.0000 H       1  UNL1        0.2100
     78 H          11.4008   -0.2316    0.0000 H       1  UNL1        0.2100
     79 H          10.9828   -0.2538    0.0000 H       1  UNL1        0.2102
     80 H          11.4327    2.5205    0.0000 H       1  UNL1        0.2102
     81 H          12.0827    2.3844    0.0000 H       1  UNL1        0.0667
     82 H           8.7766    3.2755    0.0000 H       1  UNL1        0.0691
     83 H          10.3725    5.9438    0.0000 H       1  UNL1        0.0749
     84 H           4.6452    0.9708    0.0000 H       1  UNL1        0.0493
     85 H           3.8928    0.9708    0.0000 H       1  UNL1        0.0493
     86 H          13.2107    6.5001    0.0000 H       1  UNL1        0.0628
     87 H          14.6980    3.8542    0.0000 H       1  UNL1        0.0628
     88 H          17.0049   -2.7967    0.0000 H       1  UNL1        0.0689
     89 H           7.9392    5.5878    0.0000 H       1  UNL1        0.2921
     90 H          14.7385    7.3589    0.0000 H       1  UNL1        0.0654
     91 H          16.2256    4.7129    0.0000 H       1  UNL1        0.0654
     92 H          14.8387   -2.5192    0.0000 H       1  UNL1        0.0626
     93 H          17.1176    6.9550    0.0000 H       1  UNL1        0.2921
     94 H           1.8853    1.2462    0.0000 H       1  UNL1        0.2951
     95 H          16.9904   -4.0441    0.0000 H       1  UNL1        0.0661
     96 H          13.9554   -4.0091    0.0000 H       1  UNL1        0.0625
     97 H          13.9351   -5.7613    0.0000 H       1  UNL1        0.0655
     98 H          17.8304   -6.3064    0.0000 H       1  UNL1        0.2923
     99 H          15.4310   -7.6550    0.0000 H       1  UNL1        0.2923
@<TRIPOS>UNITY_ATOM_ATTR
13 1
charge 1
@<TRIPOS>BOND
     1     1    26    1
     2     1    30    1
     3     2    28    1
     4     2    31    1
     5     3    30    1
     6     3    34    1
     7     4    31    1
     8     4    35    1
     9     5    22    1
    10     5    75    1
    11     6    23    1
    12     6    76    1
    13     7    24    1
    14     7    77    1
    15     8    25    1
    16     8    78    1
    17     9    27    1
    18     9    79    1
    19    10    29    1
    20    10    80    1
    21    11    32    1
    22    11    44    1
    23    12    33    1
    24    12    45    1
    25    13    38   ar
    26    13    39   ar
    27    14    42    1
    28    14    89    1
    29    15    44    2
    30    16    45    2
    31    17    52    1
    32    17    93    1
    33    18    53    1
    34    18    94    1
    35    19    53    2
    36    20    58    1
    37    20    98    1
    38    21    60    1
    39    21    99    1
    40    22    23    1
    41    22    26    1
    42    22    61    1
    43    23    27    1
    44    23    62    1
    45    24    25    1
    46    24    28    1
    47    24    63    1
    48    25    29    1
    49    25    64    1
    50    26    32    1
    51    26    65    1
    52    27    30    1
    53    27    66    1
    54    28    33    1
    55    28    67    1
    56    29    31    1
    57    29    68    1
    58    30    69    1
    59    31    70    1
    60    32    71    1
    61    32    72    1
    62    33    73    1
    63    33    74    1
    64    34    36   ar
    65    34    40   ar
    66    35    37   ar
    67    35    38   ar
    68    36    37   ar
    69    36    39   ar
    70    37    81    1
    71    38    43    1
    72    39    41   ar
    73    40    42   ar
    74    40    82    1
    75    41    42   ar
    76    41    83    1
    77    43    47   ar
    78    43    48   ar
    79    44    46    1
    80    45    49    1
    81    46    53    1
    82    46    84    1
    83    46    85    1
    84    47    50   ar
    85    47    86    1
    86    48    51   ar
    87    48    87    1
    88    49    54    2
    89    49    88    1
    90    50    52   ar
    91    50    90    1
    92    51    52   ar
    93    51    91    1
    94    54    55    1
    95    54    92    1
    96    55    56   ar
    97    55    57   ar
    98    56    58   ar
    99    56    95    1
   100    57    59   ar
   101    57    96    1
   102    58    60   ar
   103    59    60   ar
   104    59    97    1
