@<TRIPOS>MOLECULE
IMPHY002855
 79 83 0 0 0
SMALL
GASTEIGER

@<TRIPOS>ATOM
      1 O           2.0000   -2.6574    0.0000 O.2     1  UNL1       -0.2968
      2 C           6.5271   -1.1050    0.0000 C.3     1  UNL1       -0.0231
      3 C           7.3931   -0.6051    0.0000 C.3     1  UNL1       -0.0233
      4 C           5.6610   -0.6051    0.0000 C.3     1  UNL1       -0.0294
      5 C           7.3931    0.3949    0.0000 C.3     1  UNL1       -0.0313
      6 C           4.7510   -1.1119    0.0000 C.3     1  UNL1       -0.0246
      7 C           8.2870    0.9296    0.0000 C.3     1  UNL1       -0.0260
      8 C           4.7430   -2.1535    0.0000 C.3     1  UNL1       -0.0235
      9 C           9.1931    0.4158    0.0000 C.3     1  UNL1       -0.0281
     10 C           6.5431   -2.1466    0.0000 C.3     1  UNL1       -0.0466
     11 C           5.6610    0.3949    0.0000 C.3     1  UNL1       -0.0489
     12 C           8.2870   -1.1397    0.0000 C.3     1  UNL1       -0.0464
     13 C           6.5271    0.8949    0.0000 C.3     1  UNL1       -0.0491
     14 C           5.6451   -2.6743    0.0000 C.3     1  UNL1       -0.0483
     15 C           9.1931   -0.6259    0.0000 C.3     1  UNL1       -0.0468
     16 C           7.1698   -1.8711    0.0000 C.3     1  UNL1       -0.0588
     17 C           7.7352   -1.5447    0.0000 C.3     1  UNL1       -0.0588
     18 C           3.8242   -0.5478    0.0000 C.3     1  UNL1       -0.0404
     19 C           3.8076   -2.7032    0.0000 C.3     1  UNL1        0.0267
     20 C           8.2619    2.0143    0.0000 C.3     1  UNL1       -0.0194
     21 C          10.1369    0.9510    0.0000 C.3     1  UNL1       -0.0436
     22 C           4.7587   -0.1119    0.0000 C.3     1  UNL1       -0.0590
     23 C           2.8763   -1.0758    0.0000 C.3     1  UNL1        0.0069
     24 C          10.0629   -0.0775    0.0000 C.3     1  UNL1       -0.0593
     25 C           2.8680   -2.1607    0.0000 C.2     1  UNL1        0.1392
     26 C          10.1369    2.0360    0.0000 C.3     1  UNL1       -0.0312
     27 C           9.1931    2.5712    0.0000 C.2     1  UNL1       -0.0735
     28 C           3.3109   -3.5712    0.0000 C.3     1  UNL1       -0.0528
     29 C           4.3109   -3.5673    0.0000 C.3     1  UNL1       -0.0528
     30 C           7.3864    2.4975    0.0000 C.3     1  UNL1       -0.0584
     31 C           9.1815    3.5712    0.0000 C.2     1  UNL1       -0.0992
     32 H           6.3972   -0.1801    0.0000 H       1  UNL1        0.0312
     33 H           7.3865    1.2449    0.0000 H       1  UNL1        0.0309
     34 H           9.0165    1.3659    0.0000 H       1  UNL1        0.0315
     35 H           4.7463   -3.0035    0.0000 H       1  UNL1        0.0315
     36 H           6.7612   -2.7270    0.0000 H       1  UNL1        0.0271
     37 H           7.1523   -2.0311    0.0000 H       1  UNL1        0.0271
     38 H           5.4490    0.9776    0.0000 H       1  UNL1        0.0268
     39 H           5.0504    0.2873    0.0000 H       1  UNL1        0.0268
     40 H           7.8824   -1.6095    0.0000 H       1  UNL1        0.0271
     41 H           8.6806   -1.6187    0.0000 H       1  UNL1        0.0271
     42 H           6.9256    1.3699    0.0000 H       1  UNL1        0.0268
     43 H           6.1285    1.3699    0.0000 H       1  UNL1        0.0268
     44 H           5.2478   -3.1503    0.0000 H       1  UNL1        0.0269
     45 H           6.0460   -3.1472    0.0000 H       1  UNL1        0.0269
     46 H           9.4022   -1.2096    0.0000 H       1  UNL1        0.0271
     47 H           9.8040   -0.5198    0.0000 H       1  UNL1        0.0271
     48 H           6.6949   -2.2696    0.0000 H       1  UNL1        0.0235
     49 H           7.5684   -2.3460    0.0000 H       1  UNL1        0.0235
     50 H           7.6448   -1.4726    0.0000 H       1  UNL1        0.0235
     51 H           7.1526   -1.7568    0.0000 H       1  UNL1        0.0235
     52 H           7.9473   -2.1273    0.0000 H       1  UNL1        0.0235
     53 H           8.3178   -1.3326    0.0000 H       1  UNL1        0.0235
     54 H           4.2324   -0.0812    0.0000 H       1  UNL1        0.0275
     55 H           3.4343   -0.0658    0.0000 H       1  UNL1        0.0275
     56 H           7.7317    1.6930    0.0000 H       1  UNL1        0.0346
     57 H          10.3459    0.3673    0.0000 H       1  UNL1        0.0274
     58 H          10.7477    1.0571    0.0000 H       1  UNL1        0.0274
     59 H           5.3787   -0.1167    0.0000 H       1  UNL1        0.0235
     60 H           4.7635    0.5081    0.0000 H       1  UNL1        0.0235
     61 H           4.1388   -0.1071    0.0000 H       1  UNL1        0.0235
     62 H           2.6718   -0.4905    0.0000 H       1  UNL1        0.0342
     63 H           2.2647   -1.1771    0.0000 H       1  UNL1        0.0342
     64 H           9.7571   -0.6169    0.0000 H       1  UNL1        0.0235
     65 H          10.6023   -0.3834    0.0000 H       1  UNL1        0.0235
     66 H          10.3688    0.4618    0.0000 H       1  UNL1        0.0235
     67 H          10.7477    1.9299    0.0000 H       1  UNL1        0.0310
     68 H          10.3459    2.6197    0.0000 H       1  UNL1        0.0310
     69 H           3.7752   -3.8794    0.0000 H       1  UNL1        0.0239
     70 H           4.6230   -4.1030    0.0000 H       1  UNL1        0.0239
     71 H           2.7728   -3.2632    0.0000 H       1  UNL1        0.0239
     72 H           4.8466   -3.2553    0.0000 H       1  UNL1        0.0239
     73 H           3.0030   -4.1093    0.0000 H       1  UNL1        0.0239
     74 H           3.8490   -3.8791    0.0000 H       1  UNL1        0.0239
     75 H           7.6860    3.0403    0.0000 H       1  UNL1        0.0236
     76 H           6.8436    2.7971    0.0000 H       1  UNL1        0.0236
     77 H           7.0868    1.9547    0.0000 H       1  UNL1        0.0236
     78 H           9.7148    3.8874    0.0000 H       1  UNL1        0.0534
     79 H           8.6410    3.8749    0.0000 H       1  UNL1        0.0534
@<TRIPOS>BOND
     1     1    25    2
     2     2     3    1
     3     2     4    1
     4     2    10    1
     5     2    16    1
     6     3     5    1
     7     3    12    1
     8     3    17    1
     9     4     6    1
    10     4    11    1
    11     4    32    1
    12     5     7    1
    13     5    13    1
    14     5    33    1
    15     6     8    1
    16     6    18    1
    17     6    22    1
    18     7     9    1
    19     7    20    1
    20     7    34    1
    21     8    14    1
    22     8    19    1
    23     8    35    1
    24     9    15    1
    25     9    21    1
    26     9    24    1
    27    10    14    1
    28    10    36    1
    29    10    37    1
    30    11    13    1
    31    11    38    1
    32    11    39    1
    33    12    15    1
    34    12    40    1
    35    12    41    1
    36    13    42    1
    37    13    43    1
    38    14    44    1
    39    14    45    1
    40    15    46    1
    41    15    47    1
    42    16    48    1
    43    16    49    1
    44    16    50    1
    45    17    51    1
    46    17    52    1
    47    17    53    1
    48    18    23    1
    49    18    54    1
    50    18    55    1
    51    19    25    1
    52    19    28    1
    53    19    29    1
    54    20    27    1
    55    20    30    1
    56    20    56    1
    57    21    26    1
    58    21    57    1
    59    21    58    1
    60    22    59    1
    61    22    60    1
    62    22    61    1
    63    23    25    1
    64    23    62    1
    65    23    63    1
    66    24    64    1
    67    24    65    1
    68    24    66    1
    69    26    27    1
    70    26    67    1
    71    26    68    1
    72    27    31    2
    73    28    71    1
    74    28    73    1
    75    28    74    1
    76    29    69    1
    77    29    70    1
    78    29    72    1
    79    30    75    1
    80    30    76    1
    81    30    77    1
    82    31    78    1
    83    31    79    1
