@<TRIPOS>MOLECULE
IMPHY016649
 30 29 0 0 0
SMALL
GASTEIGER

@<TRIPOS>ATOM
      1 O           3.7320    0.7500    0.0000 O.3     1  UNL1       -0.4649
      2 O           4.5981   -0.7500    0.0000 O.2     1  UNL1       -0.2508
      3 C           8.9282    0.7500    0.0000 C.3     1  UNL1       -0.0350
      4 C           6.3301    0.2500    0.0000 C.3     1  UNL1       -0.0247
      5 C           9.7942    0.2500    0.0000 C.3     1  UNL1       -0.0525
      6 C           5.4641    0.7500    0.0000 C.3     1  UNL1        0.0483
      7 C           8.0622    0.2500    0.0000 C.2     1  UNL1       -0.0879
      8 C           7.1962    0.7500    0.0000 C.2     1  UNL1       -0.0874
      9 C          10.6603    0.7500    0.0000 C.3     1  UNL1       -0.0650
     10 C           4.5981    0.2500    0.0000 C.2     1  UNL1        0.3074
     11 C           2.8660    0.2500    0.0000 C.3     1  UNL1        0.0896
     12 C           2.0000    0.7500    0.0000 C.3     1  UNL1       -0.0306
     13 H           9.3267    1.2250    0.0000 H       1  UNL1        0.0307
     14 H           8.5297    1.2250    0.0000 H       1  UNL1        0.0307
     15 H           5.9316   -0.2249    0.0000 H       1  UNL1        0.0312
     16 H           6.7287   -0.2249    0.0000 H       1  UNL1        0.0312
     17 H           9.3957   -0.2249    0.0000 H       1  UNL1        0.0266
     18 H          10.1928   -0.2249    0.0000 H       1  UNL1        0.0266
     19 H           5.8626    1.2250    0.0000 H       1  UNL1        0.0380
     20 H           5.0656    1.2250    0.0000 H       1  UNL1        0.0380
     21 H           8.0622   -0.3700    0.0000 H       1  UNL1        0.0569
     22 H           7.1962    1.3700    0.0000 H       1  UNL1        0.0569
     23 H          10.9703    0.2131    0.0000 H       1  UNL1        0.0230
     24 H          11.1972    1.0600    0.0000 H       1  UNL1        0.0230
     25 H          10.3503    1.2869    0.0000 H       1  UNL1        0.0230
     26 H           2.4675   -0.2249    0.0000 H       1  UNL1        0.0694
     27 H           3.2646   -0.2249    0.0000 H       1  UNL1        0.0694
     28 H           2.3100    1.2869    0.0000 H       1  UNL1        0.0262
     29 H           1.4631    1.0600    0.0000 H       1  UNL1        0.0262
     30 H           1.6900    0.2131    0.0000 H       1  UNL1        0.0262
@<TRIPOS>BOND
     1     1    10    1
     2     1    11    1
     3     2    10    2
     4     3     5    1
     5     3     7    1
     6     3    13    1
     7     3    14    1
     8     4     6    1
     9     4     8    1
    10     4    15    1
    11     4    16    1
    12     5     9    1
    13     5    17    1
    14     5    18    1
    15     6    10    1
    16     6    19    1
    17     6    20    1
    18     7     8    2
    19     7    21    1
    20     8    22    1
    21     9    23    1
    22     9    24    1
    23     9    25    1
    24    11    12    1
    25    11    26    1
    26    11    27    1
    27    12    28    1
    28    12    29    1
    29    12    30    1
