@<TRIPOS>MOLECULE
IMPHY001572
 48 51 0 0 0
SMALL
GASTEIGER

@<TRIPOS>ATOM
      1 O          10.9758   -0.5478    0.0000 O.3     1  UNL1       -0.4815
      2 O           6.0682   -2.0317    0.0000 O.3     1  UNL1       -0.4874
      3 O           7.4343    0.3343    0.0000 O.3     1  UNL1       -0.3731
      4 O           7.9343    1.2003    0.0000 O.3     1  UNL1       -0.4940
      5 O           6.0682    0.9683    0.0000 O.2     1  UNL1       -0.2882
      6 O           4.3198    1.0029    0.0000 O.3     1  UNL1       -0.5058
      7 O           2.5381   -2.0559    0.0000 O.3     1  UNL1       -0.5065
      8 C           6.9343   -0.5317    0.0000 C.3     1  UNL1        0.1907
      9 C           7.9343   -0.5317    0.0000 C.ar    1  UNL1        0.0372
     10 C           6.9343   -1.5317    0.0000 C.3     1  UNL1        0.1298
     11 C          11.5035    0.3503    0.0000 C.3     1  UNL1        0.1235
     12 C           6.0682   -0.0317    0.0000 C.2     1  UNL1        0.2094
     13 C           8.4343    0.3343    0.0000 C.ar    1  UNL1        0.1371
     14 C           9.4343    0.3343    0.0000 C.ar    1  UNL1        0.0585
     15 C           9.9343   -0.5317    0.0000 C.ar    1  UNL1        0.1324
     16 C           5.2022   -0.5317    0.0000 C.ar    1  UNL1        0.1039
     17 C           8.4343   -1.3977    0.0000 C.ar    1  UNL1       -0.0483
     18 C          10.9827    1.2524    0.0000 C.2     1  UNL1       -0.0408
     19 C           5.2022   -1.5317    0.0000 C.ar    1  UNL1        0.1382
     20 C           9.4343   -1.3977    0.0000 C.ar    1  UNL1       -0.0187
     21 C           9.9411    1.2443    0.0000 C.2     1  UNL1       -0.0478
     22 C          12.3715    0.8469    0.0000 C.3     1  UNL1       -0.0215
     23 C          12.3676   -0.1531    0.0000 C.3     1  UNL1       -0.0215
     24 C           4.3083    0.0030    0.0000 C.ar    1  UNL1        0.1344
     25 C           4.3083   -2.0664    0.0000 C.ar    1  UNL1        0.0225
     26 C           3.4022   -0.5109    0.0000 C.ar    1  UNL1        0.0222
     27 C           3.4022   -1.5525    0.0000 C.ar    1  UNL1        0.1238
     28 C           8.4343    2.0664    0.0000 C.3     1  UNL1        0.0788
     29 H           7.1463   -2.1143    0.0000 H       1  UNL1        0.0734
     30 H           7.5449   -1.4240    0.0000 H       1  UNL1        0.0734
     31 H           8.1243   -1.9347    0.0000 H       1  UNL1        0.0624
     32 H          11.2907    1.7905    0.0000 H       1  UNL1        0.0611
     33 H           9.7443   -1.9347    0.0000 H       1  UNL1        0.0654
     34 H           9.6249    1.7776    0.0000 H       1  UNL1        0.0624
     35 H          12.6794    0.3088    0.0000 H       1  UNL1        0.0271
     36 H          12.0556   -0.6888    0.0000 H       1  UNL1        0.0271
     37 H          12.9034   -0.4651    0.0000 H       1  UNL1        0.0271
     38 H          12.6797    0.3827    0.0000 H       1  UNL1        0.0271
     39 H          12.9096    1.1549    0.0000 H       1  UNL1        0.0271
     40 H          12.0636    1.3851    0.0000 H       1  UNL1        0.0271
     41 H           7.1243    0.8713    0.0000 H       1  UNL1        0.2113
     42 H           4.3154   -2.6863    0.0000 H       1  UNL1        0.0691
     43 H           2.8665   -0.1988    0.0000 H       1  UNL1        0.0691
     44 H           8.9712    1.7564    0.0000 H       1  UNL1        0.0660
     45 H           8.7443    2.6033    0.0000 H       1  UNL1        0.0660
     46 H           7.8973    2.3764    0.0000 H       1  UNL1        0.0660
     47 H           3.7865    1.3191    0.0000 H       1  UNL1        0.2922
     48 H           2.0000   -1.7479    0.0000 H       1  UNL1        0.2921
@<TRIPOS>BOND
     1     1    11    1
     2     1    15    1
     3     2    10    1
     4     2    19    1
     5     3     8    1
     6     3    41    1
     7     4    13    1
     8     4    28    1
     9     5    12    2
    10     6    24    1
    11     6    47    1
    12     7    27    1
    13     7    48    1
    14     8     9    1
    15     8    10    1
    16     8    12    1
    17     9    13   ar
    18     9    17   ar
    19    10    29    1
    20    10    30    1
    21    11    18    1
    22    11    22    1
    23    11    23    1
    24    12    16    1
    25    13    14   ar
    26    14    15   ar
    27    14    21    1
    28    15    20   ar
    29    16    19   ar
    30    16    24   ar
    31    17    20   ar
    32    17    31    1
    33    18    21    2
    34    18    32    1
    35    19    25   ar
    36    20    33    1
    37    21    34    1
    38    22    35    1
    39    22    39    1
    40    22    40    1
    41    23    36    1
    42    23    37    1
    43    23    38    1
    44    24    26   ar
    45    25    27   ar
    46    25    42    1
    47    26    27   ar
    48    26    43    1
    49    28    44    1
    50    28    45    1
    51    28    46    1
