@<TRIPOS>MOLECULE
IMPHY000904
 72 76 0 0 0
SMALL
GASTEIGER

@<TRIPOS>ATOM
      1 O           9.8563   -0.1725    0.0000 O.3     1  UNL1       -0.3609
      2 O           5.5262   -1.6725    0.0000 O.3     1  UNL1       -0.3313
      3 O           7.2582   -1.6725    0.0000 O.3     1  UNL1       -0.4602
      4 O           8.1243   -2.1725    0.0000 O.3     1  UNL1       -0.3862
      5 O           9.8563   -3.1725    0.0000 O.3     1  UNL1       -0.3865
      6 O          11.5884   -2.1725    0.0000 O.3     1  UNL1       -0.3865
      7 O           5.5262   -4.6725    0.0000 O.3     1  UNL1       -0.3864
      8 O           7.2582   -3.6725    0.0000 O.3     1  UNL1       -0.3829
      9 O           3.7941   -3.6725    0.0000 O.3     1  UNL1       -0.3865
     10 O          12.4544   -0.6725    0.0000 O.3     1  UNL1       -0.3924
     11 O           8.9903    1.3275    0.0000 O.3     1  UNL1       -0.5054
     12 O           5.4822    1.3343    0.0000 O.2     1  UNL1       -0.4544
     13 O           2.9281   -2.1725    0.0000 O.3     1  UNL1       -0.3924
     14 O           8.1460    2.8589    0.0000 O.2     1  UNL1       -0.2869
     15 O           2.0024    4.3625    0.0000 O.3     1  UNL1       -0.5068
     16 C           8.9903   -0.6725    0.0000 C.3     1  UNL1        0.1193
     17 C           8.9903   -1.6725    0.0000 C.3     1  UNL1        0.1139
     18 C           9.8563   -2.1725    0.0000 C.3     1  UNL1        0.1121
     19 C          10.7223   -1.6725    0.0000 C.3     1  UNL1        0.1117
     20 C          10.7223   -0.6725    0.0000 C.3     1  UNL1        0.1108
     21 C           8.1243   -0.1725    0.0000 C.ar    1  UNL1        0.0677
     22 C           5.5262   -3.6725    0.0000 C.3     1  UNL1        0.1152
     23 C           6.3922   -3.1725    0.0000 C.3     1  UNL1        0.1454
     24 C           4.6602   -3.1725    0.0000 C.3     1  UNL1        0.1120
     25 C           6.3922   -2.1725    0.0000 C.3     1  UNL1        0.2308
     26 C           4.6602   -2.1725    0.0000 C.3     1  UNL1        0.1140
     27 C           7.2582   -0.6725    0.0000 C.ar    1  UNL1        0.1367
     28 C          11.5884   -0.1725    0.0000 C.3     1  UNL1        0.0729
     29 C           8.1243    0.8275    0.0000 C.ar    1  UNL1        0.1404
     30 C           3.7941   -1.6725    0.0000 C.3     1  UNL1        0.0731
     31 C           6.3922   -0.1725    0.0000 C.ar    1  UNL1        0.0238
     32 C           7.2582    1.3275    0.0000 C.ar    1  UNL1        0.1058
     33 C           6.3922    0.8275    0.0000 C.ar    1  UNL1        0.1463
     34 C           7.2743    2.3690    0.0000 C.ar    1  UNL1        0.1966
     35 C           6.3762    2.8967    0.0000 C.ar    1  UNL1        0.0288
     36 C           5.4742    2.3759    0.0000 C.ar    1  UNL1        0.1392
     37 C           4.6062    2.8726    0.0000 C.ar    1  UNL1        0.0176
     38 C           3.7421    2.3692    0.0000 C.ar    1  UNL1       -0.0476
     39 C           4.6024    3.8726    0.0000 C.ar    1  UNL1       -0.0476
     40 C           2.8742    2.8659    0.0000 C.ar    1  UNL1       -0.0195
     41 C           3.7344    4.3692    0.0000 C.ar    1  UNL1       -0.0195
     42 C           2.8703    3.8659    0.0000 C.ar    1  UNL1        0.1169
     43 H           8.9903    0.1775    0.0000 H       1  UNL1        0.0676
     44 H           8.4534   -1.3625    0.0000 H       1  UNL1        0.0649
     45 H           9.3194   -2.4825    0.0000 H       1  UNL1        0.0647
     46 H          11.2593   -1.3625    0.0000 H       1  UNL1        0.0647
     47 H          10.7223   -0.0525    0.0000 H       1  UNL1        0.0646
     48 H           4.9892   -3.9825    0.0000 H       1  UNL1        0.0648
     49 H           6.3922   -3.7925    0.0000 H       1  UNL1        0.0683
     50 H           4.1232   -2.8625    0.0000 H       1  UNL1        0.0647
     51 H           6.3922   -1.5525    0.0000 H       1  UNL1        0.1084
     52 H           4.6602   -1.5525    0.0000 H       1  UNL1        0.0647
     53 H          11.9869    0.3024    0.0000 H       1  UNL1        0.0584
     54 H          11.1898    0.3024    0.0000 H       1  UNL1        0.0584
     55 H           4.1927   -1.1976    0.0000 H       1  UNL1        0.0584
     56 H           3.3956   -1.1976    0.0000 H       1  UNL1        0.0584
     57 H           8.1243   -2.7925    0.0000 H       1  UNL1        0.2100
     58 H          10.3932   -3.4825    0.0000 H       1  UNL1        0.2100
     59 H          11.5884   -2.7925    0.0000 H       1  UNL1        0.2100
     60 H           5.8553   -0.4825    0.0000 H       1  UNL1        0.0691
     61 H           4.9892   -4.9825    0.0000 H       1  UNL1        0.2100
     62 H           7.2582   -4.2925    0.0000 H       1  UNL1        0.2102
     63 H           3.7941   -4.2925    0.0000 H       1  UNL1        0.2100
     64 H          12.9913   -0.3625    0.0000 H       1  UNL1        0.2095
     65 H           8.9903    1.9475    0.0000 H       1  UNL1        0.2922
     66 H           2.3912   -1.8625    0.0000 H       1  UNL1        0.2095
     67 H           6.3786    3.5167    0.0000 H       1  UNL1        0.0693
     68 H           3.7445    1.7492    0.0000 H       1  UNL1        0.0626
     69 H           5.1381    4.1846    0.0000 H       1  UNL1        0.0626
     70 H           2.3384    2.5538    0.0000 H       1  UNL1        0.0654
     71 H           3.7320    4.9892    0.0000 H       1  UNL1        0.0654
     72 H           2.0000    4.9825    0.0000 H       1  UNL1        0.2921
@<TRIPOS>BOND
     1     1    16    1
     2     1    20    1
     3     2    25    1
     4     2    26    1
     5    25     3    1
     6     3    27    1
     7    17     4    1
     8     4    57    1
     9    18     5    1
    10     5    58    1
    11    19     6    1
    12     6    59    1
    13    22     7    1
    14     7    61    1
    15    23     8    1
    16     8    62    1
    17    24     9    1
    18     9    63    1
    19    10    28    1
    20    10    64    1
    21    11    29    1
    22    11    65    1
    23    12    33   ar
    24    12    36   ar
    25    13    30    1
    26    13    66    1
    27    14    34    2
    28    15    42    1
    29    15    72    1
    30    16    17    1
    31    16    21    1
    32    16    43    1
    33    17    18    1
    34    17    44    1
    35    18    19    1
    36    18    45    1
    37    19    20    1
    38    19    46    1
    39    20    28    1
    40    20    47    1
    41    21    27   ar
    42    21    29   ar
    43    22    23    1
    44    22    24    1
    45    22    48    1
    46    23    25    1
    47    23    49    1
    48    24    26    1
    49    24    50    1
    50    25    51    1
    51    26    30    1
    52    26    52    1
    53    27    31   ar
    54    28    53    1
    55    28    54    1
    56    29    32   ar
    57    30    55    1
    58    30    56    1
    59    31    33   ar
    60    31    60    1
    61    32    33   ar
    62    32    34   ar
    63    34    35   ar
    64    35    36   ar
    65    35    67    1
    66    36    37    1
    67    37    38   ar
    68    37    39   ar
    69    38    40   ar
    70    38    68    1
    71    39    41   ar
    72    39    69    1
    73    40    42   ar
    74    40    70    1
    75    41    42   ar
    76    41    71    1
