@<TRIPOS>MOLECULE
IMPHY003988
 41 45 0 0 0
SMALL
GASTEIGER

@<TRIPOS>ATOM
      1 O           5.4390   -0.1517    0.0000 O.3     1  UNL1       -0.3893
      2 O           8.9116    1.2899    0.0000 O.3     1  UNL1       -0.3757
      3 O           2.6079   -0.4170    0.0000 O.3     1  UNL1       -0.4526
      4 O           2.6079   -2.0934    0.0000 O.3     1  UNL1       -0.4526
      5 N           7.1256   -1.7552    0.0000 N.3     1  UNL1       -0.2914
      6 C           6.2596   -0.2552    0.0000 C.3     1  UNL1        0.0569
      7 C           7.1256   -0.7552    0.0000 C.3     1  UNL1        0.0290
      8 C           6.1461   -0.8588    0.0000 C.3     1  UNL1        0.0824
      9 C           6.5462   -1.5516    0.0000 C.3     1  UNL1        0.0268
     10 C           8.0356   -0.2484    0.0000 C.3     1  UNL1       -0.0061
     11 C           5.3935   -0.7552    0.0000 C.ar    1  UNL1       -0.0254
     12 C           6.2596   -2.2552    0.0000 C.3     1  UNL1        0.0249
     13 C           6.2435    0.7863    0.0000 C.2     1  UNL1       -0.0712
     14 C           5.3935   -1.7552    0.0000 C.ar    1  UNL1       -0.0255
     15 C           8.0436    0.7932    0.0000 C.3     1  UNL1        0.0779
     16 C           7.1415    1.3140    0.0000 C.2     1  UNL1       -0.0586
     17 C           4.4996   -0.2206    0.0000 C.ar    1  UNL1       -0.0117
     18 C           4.4996   -2.2899    0.0000 C.ar    1  UNL1       -0.0114
     19 C           3.5935   -0.7344    0.0000 C.ar    1  UNL1        0.1665
     20 C           3.5935   -1.7760    0.0000 C.ar    1  UNL1        0.1665
     21 C           8.9154    2.2899    0.0000 C.3     1  UNL1        0.0372
     22 C           2.0000   -1.2552    0.0000 C.3     1  UNL1        0.2332
     23 H           7.8617   -1.1802    0.0000 H       1  UNL1        0.0476
     24 H           5.6543   -1.2362    0.0000 H       1  UNL1        0.0618
     25 H           5.9434   -1.6969    0.0000 H       1  UNL1        0.0452
     26 H           6.5147   -2.1708    0.0000 H       1  UNL1        0.0452
     27 H           8.2401   -0.8337    0.0000 H       1  UNL1        0.0309
     28 H           8.6472   -0.1470    0.0000 H       1  UNL1        0.0309
     29 H           5.8610   -2.7302    0.0000 H       1  UNL1        0.0476
     30 H           6.6581   -2.7302    0.0000 H       1  UNL1        0.0476
     31 H           5.7030    1.0901    0.0000 H       1  UNL1        0.0580
     32 H           8.0448    1.4132    0.0000 H       1  UNL1        0.0641
     33 H           7.1391    1.9340    0.0000 H       1  UNL1        0.0595
     34 H           4.5068    0.3994    0.0000 H       1  UNL1        0.0658
     35 H           5.5995    0.4472    0.0000 H       1  UNL1        0.2099
     36 H           4.5068   -2.9098    0.0000 H       1  UNL1        0.0658
     37 H           9.5354    2.2875    0.0000 H       1  UNL1        0.0524
     38 H           8.9178    2.9099    0.0000 H       1  UNL1        0.0524
     39 H           8.2954    2.2923    0.0000 H       1  UNL1        0.0524
     40 H           1.5391   -0.8405    0.0000 H       1  UNL1        0.1166
     41 H           1.5391   -1.6700    0.0000 H       1  UNL1        0.1166
@<TRIPOS>BOND
     1     8     1    1
     2     1    35    1
     3    15     2    1
     4     2    21    1
     5     3    19    1
     6     3    22    1
     7     4    20    1
     8     4    22    1
     9     5     7    1
    10     5     9    1
    11     5    12    1
    12     6     7    1
    13     6     8    1
    14     6    11    1
    15     6    13    1
    16     7    10    1
    17     7    23    1
    18     8     9    1
    19     8    24    1
    20     9    25    1
    21     9    26    1
    22    10    15    1
    23    10    27    1
    24    10    28    1
    25    11    14   ar
    26    11    17   ar
    27    12    14    1
    28    12    29    1
    29    12    30    1
    30    13    16    2
    31    13    31    1
    32    14    18   ar
    33    15    16    1
    34    15    32    1
    35    16    33    1
    36    17    19   ar
    37    17    34    1
    38    18    20   ar
    39    18    36    1
    40    19    20   ar
    41    21    37    1
    42    21    38    1
    43    21    39    1
    44    22    40    1
    45    22    41    1
