@<TRIPOS>MOLECULE
IMPHY015796
 84 89 0 0 0
SMALL
GASTEIGER

@<TRIPOS>ATOM
      1 O           7.4149   -2.1006    0.0000 O.3     1  UNL1       -0.4570
      2 O           9.4580    1.5970    0.0000 O.3     1  UNL1       -0.3858
      3 O           8.6528    3.8042    0.0000 O.3     1  UNL1       -0.3484
      4 O           2.0000   -2.1214    0.0000 O.2     1  UNL1       -0.2921
      5 O           6.8932    4.0860    0.0000 O.3     1  UNL1       -0.3544
      6 O           6.5662   -3.6105    0.0000 O.2     1  UNL1       -0.2450
      7 C           6.5271   -0.5691    0.0000 C.3     1  UNL1        0.0300
      8 C           5.6610   -0.0691    0.0000 C.3     1  UNL1       -0.0194
      9 C           4.7510   -0.5759    0.0000 C.3     1  UNL1       -0.0061
     10 C           7.3931    0.9309    0.0000 C.3     1  UNL1       -0.0046
     11 C           7.3931   -0.0691    0.0000 C.2     1  UNL1       -0.0575
     12 C           4.7430   -1.6176    0.0000 C.3     1  UNL1       -0.0164
     13 C           6.5431   -1.6106    0.0000 C.3     1  UNL1        0.1130
     14 C           5.6610    0.9309    0.0000 C.3     1  UNL1       -0.0477
     15 C           8.3393    1.2356    0.0000 C.3     1  UNL1        0.0027
     16 C           6.5271    1.4309    0.0000 C.3     1  UNL1       -0.0432
     17 C           5.6451   -2.1384    0.0000 C.3     1  UNL1       -0.0103
     18 C           3.8076   -2.1673    0.0000 C.3     1  UNL1        0.0311
     19 C           8.9229    0.4309    0.0000 C.3     1  UNL1       -0.0282
     20 C           7.3931   -1.0691    0.0000 C.3     1  UNL1       -0.0521
     21 C           8.6500    2.1862    0.0000 C.3     1  UNL1        0.0978
     22 C           8.3393   -0.3738    0.0000 C.2     1  UNL1       -0.0832
     23 C           7.3931    1.9309    0.0000 C.3     1  UNL1       -0.0555
     24 C           4.7587    0.4240    0.0000 C.3     1  UNL1       -0.0555
     25 C           3.8242   -0.0119    0.0000 C.2     1  UNL1       -0.0742
     26 C           2.8680   -1.6248    0.0000 C.2     1  UNL1        0.1617
     27 C           7.6994    2.4968    0.0000 C.3     1  UNL1        0.0297
     28 C           9.2392    2.9942    0.0000 C.3     1  UNL1        0.0798
     29 C           2.8763   -0.5398    0.0000 C.2     1  UNL1       -0.0221
     30 C           3.3109   -3.0352    0.0000 C.3     1  UNL1       -0.0525
     31 C           4.3109   -3.0314    0.0000 C.3     1  UNL1       -0.0525
     32 C           7.7012    3.4968    0.0000 C.3     1  UNL1        0.1616
     33 C           7.4264   -3.1005    0.0000 C.2     1  UNL1        0.3395
     34 C           8.2982   -3.5904    0.0000 C.ar    1  UNL1        0.0590
     35 C           6.9994    5.0803    0.0000 C.3     1  UNL1        0.0394
     36 C           8.3097   -4.5904    0.0000 C.ar    1  UNL1       -0.0478
     37 C           9.1584   -3.0805    0.0000 C.ar    1  UNL1       -0.0478
     38 C           9.1815   -5.0803    0.0000 C.ar    1  UNL1       -0.0610
     39 C          10.0301   -3.5704    0.0000 C.ar    1  UNL1       -0.0610
     40 C          10.0417   -4.5704    0.0000 C.ar    1  UNL1       -0.0617
     41 H           6.3972    0.3559    0.0000 H       1  UNL1        0.0319
     42 H           4.7463   -2.4675    0.0000 H       1  UNL1        0.0320
     43 H           6.5491   -2.2306    0.0000 H       1  UNL1        0.0743
     44 H           5.4490    1.5135    0.0000 H       1  UNL1        0.0269
     45 H           5.0504    0.8232    0.0000 H       1  UNL1        0.0269
     46 H           9.1790    1.3675    0.0000 H       1  UNL1        0.0341
     47 H           6.9256    1.9058    0.0000 H       1  UNL1        0.0274
     48 H           6.1285    1.9058    0.0000 H       1  UNL1        0.0274
     49 H           5.2478   -2.6143    0.0000 H       1  UNL1        0.0304
     50 H           6.0460   -2.6113    0.0000 H       1  UNL1        0.0304
     51 H           9.3838    0.0162    0.0000 H       1  UNL1        0.0311
     52 H           9.3838    0.8456    0.0000 H       1  UNL1        0.0311
     53 H           7.0831   -1.6060    0.0000 H       1  UNL1        0.0239
     54 H           7.9300   -1.3791    0.0000 H       1  UNL1        0.0239
     55 H           7.7031   -0.5322    0.0000 H       1  UNL1        0.0239
     56 H           8.5319   -0.9632    0.0000 H       1  UNL1        0.0572
     57 H           8.0131    1.9309    0.0000 H       1  UNL1        0.0238
     58 H           7.3931    2.5509    0.0000 H       1  UNL1        0.0238
     59 H           6.7731    1.9309    0.0000 H       1  UNL1        0.0238
     60 H           5.3787    0.4192    0.0000 H       1  UNL1        0.0238
     61 H           4.7635    1.0440    0.0000 H       1  UNL1        0.0238
     62 H           4.1388    0.4288    0.0000 H       1  UNL1        0.0238
     63 H           3.8361    0.6080    0.0000 H       1  UNL1        0.0579
     64 H           7.0830    2.5627    0.0000 H       1  UNL1        0.0343
     65 H           7.5695    1.8906    0.0000 H       1  UNL1        0.0343
     66 H           9.6992    2.5785    0.0000 H       1  UNL1        0.0589
     67 H           9.7006    3.4082    0.0000 H       1  UNL1        0.0589
     68 H           2.3430   -0.2236    0.0000 H       1  UNL1        0.0649
     69 H           2.7728   -2.7273    0.0000 H       1  UNL1        0.0239
     70 H           3.0030   -3.5734    0.0000 H       1  UNL1        0.0239
     71 H           3.8490   -3.3432    0.0000 H       1  UNL1        0.0239
     72 H           3.7752   -3.3434    0.0000 H       1  UNL1        0.0239
     73 H           4.6230   -3.5671    0.0000 H       1  UNL1        0.0239
     74 H           4.8466   -2.7193    0.0000 H       1  UNL1        0.0239
     75 H           7.1483    3.2163    0.0000 H       1  UNL1        0.0910
     76 H          10.0248    1.8482    0.0000 H       1  UNL1        0.2103
     77 H           7.6159    5.0145    0.0000 H       1  UNL1        0.0525
     78 H           7.0653    5.6968    0.0000 H       1  UNL1        0.0525
     79 H           6.3829    5.1462    0.0000 H       1  UNL1        0.0525
     80 H           7.7764   -4.9066    0.0000 H       1  UNL1        0.0626
     81 H           9.1512   -2.4605    0.0000 H       1  UNL1        0.0626
     82 H           9.1887   -5.7003    0.0000 H       1  UNL1        0.0618
     83 H          10.5634   -3.2542    0.0000 H       1  UNL1        0.0618
     84 H          10.5822   -4.8741    0.0000 H       1  UNL1        0.0618
@<TRIPOS>BOND
     1    13     1    1
     2     1    33    1
     3     2    21    1
     4     2    76    1
     5     3    28    1
     6     3    32    1
     7     4    26    2
     8     5    32    1
     9     5    35    1
    10     6    33    2
    11     7     8    1
    12     7    11    1
    13     7    13    1
    14     7    20    1
    15     8     9    1
    16     8    14    1
    17     8    41    1
    18     9    12    1
    19     9    24    1
    20     9    25    1
    21    10    11    1
    22    10    15    1
    23    10    16    1
    24    10    23    1
    25    11    22    2
    26    12    17    1
    27    12    18    1
    28    12    42    1
    29    13    17    1
    30    13    43    1
    31    14    16    1
    32    14    44    1
    33    14    45    1
    34    15    19    1
    35    15    21    1
    36    15    46    1
    37    16    47    1
    38    16    48    1
    39    17    49    1
    40    17    50    1
    41    18    26    1
    42    18    30    1
    43    18    31    1
    44    19    22    1
    45    19    51    1
    46    19    52    1
    47    20    53    1
    48    20    54    1
    49    20    55    1
    50    21    27    1
    51    21    28    1
    52    22    56    1
    53    23    57    1
    54    23    58    1
    55    23    59    1
    56    24    60    1
    57    24    61    1
    58    24    62    1
    59    25    29    2
    60    25    63    1
    61    26    29    1
    62    27    32    1
    63    27    64    1
    64    27    65    1
    65    28    66    1
    66    28    67    1
    67    29    68    1
    68    30    69    1
    69    30    70    1
    70    30    71    1
    71    31    72    1
    72    31    73    1
    73    31    74    1
    74    32    75    1
    75    33    34    1
    76    34    36   ar
    77    34    37   ar
    78    35    77    1
    79    35    78    1
    80    35    79    1
    81    36    38   ar
    82    36    80    1
    83    37    39   ar
    84    37    81    1
    85    38    40   ar
    86    38    82    1
    87    39    40   ar
    88    39    83    1
    89    40    84    1
