@<TRIPOS>MOLECULE
IMPHY008310
 45 48 0 0 0
SMALL
GASTEIGER

@<TRIPOS>ATOM
      1 O           5.1804    1.3036    0.0000 O.3     1  UNL1       -0.4908
      2 O           6.9464    2.3414    0.0000 O.3     1  UNL1       -0.4914
      3 O           4.3198    0.8068    0.0000 O.3     1  UNL1       -0.4908
      4 O           2.5381   -0.2037    0.0000 O.3     1  UNL1       -0.5033
      5 N           7.7925   -2.2248    0.0000 N.3     1  UNL1       -0.3087
      6 C           6.9343   -1.7278    0.0000 C.3     1  UNL1        0.0378
      7 C           6.9343   -0.7278    0.0000 C.ar    1  UNL1       -0.0154
      8 C           6.0682   -2.2278    0.0000 C.3     1  UNL1       -0.0074
      9 C           7.8443   -0.2210    0.0000 C.ar    1  UNL1       -0.0372
     10 C           6.0682   -0.2278    0.0000 C.ar    1  UNL1        0.0362
     11 C           8.6836   -0.7492    0.0000 C.3     1  UNL1       -0.0146
     12 C           5.2022   -1.7278    0.0000 C.ar    1  UNL1       -0.0340
     13 C           8.6580   -1.7406    0.0000 C.3     1  UNL1        0.0004
     14 C           5.2022   -0.7278    0.0000 C.ar    1  UNL1        0.0346
     15 C           6.0522    0.8137    0.0000 C.ar    1  UNL1        0.1696
     16 C           7.8523    0.8206    0.0000 C.ar    1  UNL1       -0.0127
     17 C           6.9502    1.3414    0.0000 C.ar    1  UNL1        0.1624
     18 C           4.3083   -0.1932    0.0000 C.ar    1  UNL1        0.1693
     19 C           4.3083   -2.2625    0.0000 C.ar    1  UNL1       -0.0543
     20 C           3.4022   -0.7070    0.0000 C.ar    1  UNL1        0.1591
     21 C           3.4022   -1.7486    0.0000 C.ar    1  UNL1       -0.0162
     22 C           5.1689    2.3036    0.0000 C.3     1  UNL1        0.0790
     23 C           7.8105    2.8448    0.0000 C.3     1  UNL1        0.0790
     24 C           3.4597    1.3167    0.0000 C.3     1  UNL1        0.0790
     25 H           6.9337   -2.5778    0.0000 H       1  UNL1        0.0513
     26 H           5.6697   -2.7028    0.0000 H       1  UNL1        0.0332
     27 H           6.4668   -2.7028    0.0000 H       1  UNL1        0.0332
     28 H           9.2907   -0.8751    0.0000 H       1  UNL1        0.0326
     29 H           8.9154   -0.1742    0.0000 H       1  UNL1        0.0326
     30 H           7.7879   -2.8448    0.0000 H       1  UNL1        0.1225
     31 H           8.8597   -2.3268    0.0000 H       1  UNL1        0.0427
     32 H           9.2708   -1.6462    0.0000 H       1  UNL1        0.0427
     33 H           8.3904    1.1285    0.0000 H       1  UNL1        0.0658
     34 H           4.3154   -2.8825    0.0000 H       1  UNL1        0.0622
     35 H           2.8665   -2.0607    0.0000 H       1  UNL1        0.0655
     36 H           5.7888    2.3107    0.0000 H       1  UNL1        0.0660
     37 H           5.1617    2.9235    0.0000 H       1  UNL1        0.0660
     38 H           4.5489    2.2964    0.0000 H       1  UNL1        0.0660
     39 H           2.0000   -0.5116    0.0000 H       1  UNL1        0.2923
     40 H           8.1225    2.3090    0.0000 H       1  UNL1        0.0660
     41 H           8.3462    3.1568    0.0000 H       1  UNL1        0.0660
     42 H           7.4984    3.3805    0.0000 H       1  UNL1        0.0660
     43 H           3.7758    1.8500    0.0000 H       1  UNL1        0.0660
     44 H           2.9263    1.6329    0.0000 H       1  UNL1        0.0660
     45 H           3.1435    0.7834    0.0000 H       1  UNL1        0.0660
@<TRIPOS>BOND
     1     1    15    1
     2     1    22    1
     3     2    17    1
     4     2    23    1
     5     3    18    1
     6     3    24    1
     7     4    20    1
     8     4    39    1
     9     5     6    1
    10     5    13    1
    11     5    30    1
    12     6     7    1
    13     6     8    1
    14     6    25    1
    15     7     9   ar
    16     7    10   ar
    17     8    12    1
    18     8    26    1
    19     8    27    1
    20     9    11    1
    21     9    16   ar
    22    10    14    1
    23    10    15   ar
    24    11    13    1
    25    11    28    1
    26    11    29    1
    27    12    14   ar
    28    12    19   ar
    29    13    31    1
    30    13    32    1
    31    14    18   ar
    32    15    17   ar
    33    16    17   ar
    34    16    33    1
    35    18    20   ar
    36    19    21   ar
    37    19    34    1
    38    20    21   ar
    39    21    35    1
    40    22    36    1
    41    22    37    1
    42    22    38    1
    43    23    40    1
    44    23    41    1
    45    23    42    1
    46    24    43    1
    47    24    44    1
    48    24    45    1
