@<TRIPOS>MOLECULE
IMPHY002706
 46 51 0 0 0
SMALL
GASTEIGER

@<TRIPOS>ATOM
      1 O           7.0414   -0.3154    0.0000 O.3     1  UNL1       -0.2641
      2 O           6.6450   -1.6611    0.0000 O.3     1  UNL1       -0.3653
      3 O           4.5884   -1.5565    0.0000 O.3     1  UNL1       -0.4677
      4 O           5.6948   -1.8600    0.0000 O.2     1  UNL1       -0.2505
      5 N           7.2310    0.7291    0.0000 N.3     1  UNL1       -0.1689
      6 N           4.8482    2.3397    0.0000 N.2     1  UNL1       -0.2536
      7 C           4.8482    0.6221    0.0000 C.3     1  UNL1        0.0602
      8 C           5.1306   -0.4012    0.0000 C.3     1  UNL1        0.0488
      9 C           6.4813   -0.3119    0.0000 C.3     1  UNL1        0.0666
     10 C           5.5377    0.0655    0.0000 C.3     1  UNL1        0.0783
     11 C           5.8915    0.7732    0.0000 C.3     1  UNL1       -0.0024
     12 C           6.5326    1.5285    0.0000 C.3     1  UNL1        0.0762
     13 C           5.4721    1.4809    0.0000 C.2     1  UNL1        0.0507
     14 C           6.5285    0.8675    0.0000 C.3     1  UNL1       -0.0225
     15 C           6.5049    0.3250    0.0000 C.2     1  UNL1       -0.0501
     16 C           6.1067   -0.8184    0.0000 C.3     1  UNL1        0.1820
     17 C           3.8386    0.9501    0.0000 C.ar    1  UNL1       -0.0090
     18 C           5.3584   -0.9183    0.0000 C.2     1  UNL1        0.3117
     19 C           3.8386    2.0116    0.0000 C.ar    1  UNL1        0.0680
     20 C           7.3092    0.9191    0.0000 C.2     1  UNL1       -0.0860
     21 C           2.9193    0.4193    0.0000 C.ar    1  UNL1       -0.0556
     22 C           2.9193    2.5424    0.0000 C.ar    1  UNL1       -0.0360
     23 C           7.7088    1.8358    0.0000 C.3     1  UNL1       -0.0465
     24 C           2.0000    0.9501    0.0000 C.ar    1  UNL1       -0.0613
     25 C           2.0000    2.0116    0.0000 C.ar    1  UNL1       -0.0597
     26 C           4.7564   -2.5424    0.0000 C.3     1  UNL1        0.0817
     27 H           4.3378   -0.7078    0.0000 H       1  UNL1        0.0382
     28 H           6.7820   -0.8541    0.0000 H       1  UNL1        0.0537
     29 H           6.1259   -0.1307    0.0000 H       1  UNL1        0.0432
     30 H           5.0670    0.9798    0.0000 H       1  UNL1        0.0355
     31 H           6.4311    2.3724    0.0000 H       1  UNL1        0.0548
     32 H           6.5879    0.2504    0.0000 H       1  UNL1        0.0291
     33 H           7.1478    0.8954    0.0000 H       1  UNL1        0.0291
     34 H           5.7058   -1.2914    0.0000 H       1  UNL1        0.0929
     35 H           7.8776    0.6714    0.0000 H       1  UNL1        0.0569
     36 H           2.9193   -0.2007    0.0000 H       1  UNL1        0.0621
     37 H           7.2644   -1.6333    0.0000 H       1  UNL1        0.2125
     38 H           2.9193    3.1624    0.0000 H       1  UNL1        0.0639
     39 H           8.2772    1.5881    0.0000 H       1  UNL1        0.0272
     40 H           7.9565    2.4042    0.0000 H       1  UNL1        0.0272
     41 H           7.1404    2.0835    0.0000 H       1  UNL1        0.0272
     42 H           1.4631    0.6401    0.0000 H       1  UNL1        0.0618
     43 H           1.4631    2.3216    0.0000 H       1  UNL1        0.0618
     44 H           4.1452   -2.6465    0.0000 H       1  UNL1        0.0661
     45 H           4.8605   -3.1536    0.0000 H       1  UNL1        0.0661
     46 H           5.3676   -2.4383    0.0000 H       1  UNL1        0.0661
@<TRIPOS>BOND
     1     1     5    1
     2     1    16    1
     3    16     2    1
     4     2    37    1
     5     3    18    1
     6     3    26    1
     7     4    18    2
     8     5     9    1
     9     5    12    1
    10     6    13    2
    11     6    19    1
    12     7     8    1
    13     7    10    1
    14     7    13    1
    15     7    17    1
    16     8     9    1
    17     8    16    1
    18     8    27    1
    19     9    15    1
    20     9    28    1
    21    10    11    1
    22    10    18    1
    23    10    29    1
    24    11    14    1
    25    11    15    1
    26    11    30    1
    27    12    13    1
    28    12    14    1
    29    12    31    1
    30    14    32    1
    31    14    33    1
    32    15    20    2
    33    16    34    1
    34    17    19   ar
    35    17    21   ar
    36    19    22   ar
    37    20    23    1
    38    20    35    1
    39    21    24   ar
    40    21    36    1
    41    22    25   ar
    42    22    38    1
    43    23    39    1
    44    23    40    1
    45    23    41    1
    46    24    25   ar
    47    24    42    1
    48    25    43    1
    49    26    44    1
    50    26    45    1
    51    26    46    1
