@<TRIPOS>MOLECULE
IMPHY017313
 18 17 0 0 0
SMALL
GASTEIGER

@<TRIPOS>ATOM
      1 O           2.5369    0.5000    0.0000 O.3     1  UNL1       -0.3806
      2 O           5.1350    0.0000    0.0000 O.3     1  UNL1       -0.4661
      3 O           4.2690    1.5000    0.0000 O.2     1  UNL1       -0.2479
      4 C           3.4030    0.0000    0.0000 C.3     1  UNL1        0.1513
      5 C           3.4030   -1.0000    0.0000 C.3     1  UNL1       -0.0192
      6 C           2.5369   -1.5000    0.0000 C.3     1  UNL1       -0.0624
      7 C           4.2690    0.5000    0.0000 C.2     1  UNL1        0.3357
      8 C           6.0010    0.5000    0.0000 C.3     1  UNL1        0.0817
      9 H           3.4030    0.8500    0.0000 H       1  UNL1        0.0710
     10 H           3.6150   -1.5826    0.0000 H       1  UNL1        0.0293
     11 H           4.0135   -0.8923    0.0000 H       1  UNL1        0.0293
     12 H           2.2269   -0.9631    0.0000 H       1  UNL1        0.0231
     13 H           2.0000   -1.8100    0.0000 H       1  UNL1        0.0231
     14 H           2.8469   -2.0369    0.0000 H       1  UNL1        0.0231
     15 H           2.0000    0.1900    0.0000 H       1  UNL1        0.2105
     16 H           6.3110   -0.0369    0.0000 H       1  UNL1        0.0661
     17 H           6.5380    0.8100    0.0000 H       1  UNL1        0.0661
     18 H           5.6910    1.0369    0.0000 H       1  UNL1        0.0661
@<TRIPOS>BOND
     1     1     4    1
     2     1    15    1
     3     2     7    1
     4     2     8    1
     5     3     7    2
     6     4     5    1
     7     4     7    1
     8     4     9    1
     9     5     6    1
    10     5    10    1
    11     5    11    1
    12     6    12    1
    13     6    13    1
    14     6    14    1
    15     8    16    1
    16     8    17    1
    17     8    18    1
