@<TRIPOS>MOLECULE
IMPHY009781
 30 30 0 0 0
SMALL
GASTEIGER

@<TRIPOS>ATOM
      1 C           5.6350    0.0670    0.0000 C.3     1  UNL1       -0.0286
      2 C           5.1350    0.9330    0.0000 C.3     1  UNL1       -0.0308
      3 C           4.7690   -0.4330    0.0000 C.2     1  UNL1       -0.0759
      4 C           3.4030    0.9330    0.0000 C.2     1  UNL1       -0.0728
      5 C           4.2690    0.4330    0.0000 C.2     1  UNL1       -0.0844
      6 C           2.5369    0.4330    0.0000 C.3     1  UNL1       -0.0138
      7 C           4.7690   -1.4330    0.0000 C.2     1  UNL1       -0.0813
      8 C           3.9030   -1.9330    0.0000 C.3     1  UNL1       -0.0163
      9 C           2.5369   -0.5670    0.0000 C.2     1  UNL1       -0.0837
     10 C           3.8293   -0.0910    0.0000 C.3     1  UNL1       -0.0438
     11 C           3.4030   -1.0670    0.0000 C.2     1  UNL1       -0.0839
     12 C           3.4030    1.9330    0.0000 C.3     1  UNL1       -0.0435
     13 H           5.9450   -0.4699    0.0000 H       1  UNL1        0.0313
     14 H           6.1720    0.3770    0.0000 H       1  UNL1        0.0313
     15 H           5.6720    1.2430    0.0000 H       1  UNL1        0.0310
     16 H           4.8250    1.4700    0.0000 H       1  UNL1        0.0310
     17 H           4.2690   -0.1870    0.0000 H       1  UNL1        0.0572
     18 H           2.3249    1.0156    0.0000 H       1  UNL1        0.0352
     19 H           1.9264    0.3254    0.0000 H       1  UNL1        0.0352
     20 H           5.3059   -1.7430    0.0000 H       1  UNL1        0.0575
     21 H           3.3660   -2.2430    0.0000 H       1  UNL1        0.0350
     22 H           4.2130   -2.4700    0.0000 H       1  UNL1        0.0350
     23 H           2.0000   -0.8770    0.0000 H       1  UNL1        0.0572
     24 H           4.0414    0.4916    0.0000 H       1  UNL1        0.0274
     25 H           3.2467    0.1211    0.0000 H       1  UNL1        0.0274
     26 H           3.6172   -0.6736    0.0000 H       1  UNL1        0.0274
     27 H           3.9108   -0.7114    0.0000 H       1  UNL1        0.0572
     28 H           4.0230    1.9330    0.0000 H       1  UNL1        0.0274
     29 H           3.4030    2.5530    0.0000 H       1  UNL1        0.0274
     30 H           2.7830    1.9330    0.0000 H       1  UNL1        0.0274
@<TRIPOS>BOND
     1     1     2    1
     2     1     3    1
     3     1    13    1
     4     1    14    1
     5     2     5    1
     6     2    15    1
     7     2    16    1
     8     3     7    2
     9     3    10    1
    10     4     5    2
    11     4     6    1
    12     4    12    1
    13     5    17    1
    14     6     9    1
    15     6    18    1
    16     6    19    1
    17     7     8    1
    18     7    20    1
    19     8    11    1
    20     8    21    1
    21     8    22    1
    22     9    11    2
    23     9    23    1
    24    10    24    1
    25    10    25    1
    26    10    26    1
    27    11    27    1
    28    12    28    1
    29    12    29    1
    30    12    30    1
