@<TRIPOS>MOLECULE
IMPHY006209
 77 80 0 0 0
SMALL
GASTEIGER

@<TRIPOS>ATOM
      1 O           3.8000   -0.5209    0.0000 O.3     1  UNL1       -0.3837
      2 O           4.6660   -1.0209    0.0000 O.3     1  UNL1       -0.4527
      3 O           6.3981   -0.0209    0.0000 O.3     1  UNL1       -0.3877
      4 O           5.5442    4.5484    0.0000 O.2     1  UNL1       -0.2971
      5 O           8.1898    5.0209    0.0000 O.3     1  UNL1       -0.4679
      6 O           6.3981   -1.0209    0.0000 O.2     1  UNL1       -0.2456
      7 O           6.4578    5.0276    0.0000 O.2     1  UNL1       -0.2508
      8 C           3.8000    1.4791    0.0000 C.3     1  UNL1        0.0044
      9 C           3.8000    0.4791    0.0000 C.3     1  UNL1        0.1159
     10 C           4.6660    1.9791    0.0000 C.3     1  UNL1       -0.0207
     11 C           5.5321    1.4791    0.0000 C.3     1  UNL1       -0.0044
     12 C           2.9061   -0.0555    0.0000 C.3     1  UNL1       -0.0020
     13 C           4.6660   -0.0209    0.0000 C.3     1  UNL1        0.1588
     14 C           5.5321    0.4791    0.0000 C.3     1  UNL1        0.0982
     15 C           2.9061    2.0138    0.0000 C.3     1  UNL1       -0.0446
     16 C           6.4421    1.9860    0.0000 C.3     1  UNL1       -0.0283
     17 C           2.0000    0.4583    0.0000 C.3     1  UNL1       -0.0451
     18 C           4.6500    3.0206    0.0000 C.3     1  UNL1        0.0099
     19 C           2.0000    1.4999    0.0000 C.3     1  UNL1       -0.0519
     20 C           3.8000    2.4791    0.0000 C.3     1  UNL1       -0.0565
     21 C           6.4501    3.0276    0.0000 C.3     1  UNL1        0.0304
     22 C           2.4161   -0.9273    0.0000 C.3     1  UNL1       -0.0571
     23 C           3.0911   -1.0383    0.0000 C.3     1  UNL1       -0.0571
     24 C           5.5480    3.5484    0.0000 C.2     1  UNL1        0.1375
     25 C           7.3022    1.4760    0.0000 C.3     1  UNL1       -0.0614
     26 C           7.3180    3.5242    0.0000 C.3     1  UNL1        0.0547
     27 C           5.5321   -1.5209    0.0000 C.2     1  UNL1        0.3324
     28 C           7.3219    4.5242    0.0000 C.2     1  UNL1        0.3075
     29 C           5.5321   -2.5209    0.0000 C.2     1  UNL1        0.0231
     30 C           6.3981   -3.0209    0.0000 C.2     1  UNL1       -0.0478
     31 C           8.1937    6.0209    0.0000 C.3     1  UNL1        0.0817
     32 C           6.3981   -4.0209    0.0000 C.ar    1  UNL1       -0.0248
     33 C           5.5321   -4.5209    0.0000 C.ar    1  UNL1       -0.0546
     34 C           7.2641   -4.5209    0.0000 C.ar    1  UNL1       -0.0546
     35 C           5.5321   -5.5209    0.0000 C.ar    1  UNL1       -0.0612
     36 C           7.2641   -5.5209    0.0000 C.ar    1  UNL1       -0.0612
     37 C           6.3981   -6.0209    0.0000 C.ar    1  UNL1       -0.0617
     38 H           5.3989    2.4098    0.0000 H       1  UNL1        0.0315
     39 H           6.2649    1.0485    0.0000 H       1  UNL1        0.0333
     40 H           5.2030   -0.3309    0.0000 H       1  UNL1        0.0790
     41 H           6.0690    0.7891    0.0000 H       1  UNL1        0.0634
     42 H           3.3107    2.4836    0.0000 H       1  UNL1        0.0272
     43 H           2.5124    2.4928    0.0000 H       1  UNL1        0.0272
     44 H           6.9820    2.2908    0.0000 H       1  UNL1        0.0309
     45 H           1.3891    0.5644    0.0000 H       1  UNL1        0.0271
     46 H           1.7909   -0.1254    0.0000 H       1  UNL1        0.0271
     47 H           4.4319    3.6010    0.0000 H       1  UNL1        0.0345
     48 H           4.0408    2.9051    0.0000 H       1  UNL1        0.0345
     49 H           1.7909    2.0836    0.0000 H       1  UNL1        0.0266
     50 H           1.3891    1.3938    0.0000 H       1  UNL1        0.0266
     51 H           4.4200    2.4791    0.0000 H       1  UNL1        0.0236
     52 H           3.8000    3.0991    0.0000 H       1  UNL1        0.0236
     53 H           3.1800    2.4791    0.0000 H       1  UNL1        0.0236
     54 H           6.4513    3.6476    0.0000 H       1  UNL1        0.0385
     55 H           1.8756   -0.6235    0.0000 H       1  UNL1        0.0236
     56 H           2.1123   -1.4678    0.0000 H       1  UNL1        0.0236
     57 H           2.9566   -1.2310    0.0000 H       1  UNL1        0.0236
     58 H           2.4818   -1.1530    0.0000 H       1  UNL1        0.0236
     59 H           3.2058   -1.6476    0.0000 H       1  UNL1        0.0236
     60 H           3.7004   -0.9236    0.0000 H       1  UNL1        0.0236
     61 H           3.9077   -1.1314    0.0000 H       1  UNL1        0.2104
     62 H           6.9861    0.9427    0.0000 H       1  UNL1        0.0233
     63 H           7.8356    1.1598    0.0000 H       1  UNL1        0.0233
     64 H           7.6184    2.0093    0.0000 H       1  UNL1        0.0233
     65 H           6.9350    0.2891    0.0000 H       1  UNL1        0.2100
     66 H           7.5278    2.9408    0.0000 H       1  UNL1        0.0384
     67 H           7.9290    3.6295    0.0000 H       1  UNL1        0.0384
     68 H           4.9951   -2.8309    0.0000 H       1  UNL1        0.0689
     69 H           6.9350   -2.7109    0.0000 H       1  UNL1        0.0626
     70 H           8.8137    6.0185    0.0000 H       1  UNL1        0.0661
     71 H           8.1961    6.6409    0.0000 H       1  UNL1        0.0661
     72 H           7.5737    6.0233    0.0000 H       1  UNL1        0.0661
     73 H           4.9951   -4.2109    0.0000 H       1  UNL1        0.0623
     74 H           7.8010   -4.2109    0.0000 H       1  UNL1        0.0623
     75 H           4.9951   -5.8309    0.0000 H       1  UNL1        0.0618
     76 H           7.8010   -5.8309    0.0000 H       1  UNL1        0.0618
     77 H           6.3981   -6.6409    0.0000 H       1  UNL1        0.0618
@<TRIPOS>BOND
     1     9     1    1
     2     1    61    1
     3    13     2    1
     4     2    27    1
     5    14     3    1
     6     3    65    1
     7     4    24    2
     8     5    28    1
     9     5    31    1
    10     6    27    2
    11     7    28    2
    12     8     9    1
    13     8    10    1
    14     8    15    1
    15     8    20    1
    16     9    12    1
    17     9    13    1
    18    10    11    1
    19    10    18    1
    20    10    38    1
    21    11    14    1
    22    11    16    1
    23    11    39    1
    24    12    17    1
    25    12    22    1
    26    12    23    1
    27    13    14    1
    28    13    40    1
    29    14    41    1
    30    15    19    1
    31    15    42    1
    32    15    43    1
    33    16    21    1
    34    16    25    1
    35    16    44    1
    36    17    19    1
    37    17    45    1
    38    17    46    1
    39    18    24    1
    40    18    47    1
    41    18    48    1
    42    19    49    1
    43    19    50    1
    44    20    51    1
    45    20    52    1
    46    20    53    1
    47    21    24    1
    48    21    26    1
    49    21    54    1
    50    22    55    1
    51    22    56    1
    52    22    57    1
    53    23    58    1
    54    23    59    1
    55    23    60    1
    56    25    62    1
    57    25    63    1
    58    25    64    1
    59    26    28    1
    60    26    66    1
    61    26    67    1
    62    27    29    1
    63    29    30    2
    64    29    68    1
    65    30    32    1
    66    30    69    1
    67    31    70    1
    68    31    71    1
    69    31    72    1
    70    32    33   ar
    71    32    34   ar
    72    33    35   ar
    73    33    73    1
    74    34    36   ar
    75    34    74    1
    76    35    37   ar
    77    35    75    1
    78    36    37   ar
    79    36    76    1
    80    37    77    1
