@<TRIPOS>MOLECULE
IMPHY002008
 116 122 0 0 0
SMALL
GASTEIGER

@<TRIPOS>ATOM
      1 O           6.7449   -1.3395    0.0000 O.3     1  UNL1       -0.3448
      2 O           8.6841   -1.6477    0.0000 O.3     1  UNL1       -0.3515
      3 O           6.9897    4.6794    0.0000 O.3     1  UNL1       -0.3419
      4 O           5.9704    6.5059    0.0000 O.3     1  UNL1       -0.3866
      5 O           3.8788    6.5202    0.0000 O.3     1  UNL1       -0.3888
      6 O           7.0216    6.4112    0.0000 O.3     1  UNL1       -0.3461
      7 O           8.9894    4.6426    0.0000 O.3     1  UNL1       -0.3841
      8 O           6.0010   -5.3387    0.0000 O.3     1  UNL1       -0.3444
      9 O          10.0211    6.3560    0.0000 O.3     1  UNL1       -0.3864
     10 O           9.0532    8.1061    0.0000 O.3     1  UNL1       -0.3869
     11 O           4.2690   -5.3387    0.0000 O.3     1  UNL1       -0.3405
     12 O           6.0010   -7.3387    0.0000 O.3     1  UNL1       -0.3841
     13 O           4.2690   -8.3387    0.0000 O.3     1  UNL1       -0.3864
     14 O           2.5369   -7.3387    0.0000 O.3     1  UNL1       -0.3865
     15 O           2.5369   -4.3387    0.0000 O.3     1  UNL1       -0.3924
     16 C           6.9358    1.1298    0.0000 C.3     1  UNL1       -0.0233
     17 C           5.9358    1.1289    0.0000 C.3     1  UNL1       -0.0295
     18 C           7.2413    0.1838    0.0000 C.3     1  UNL1       -0.0015
     19 C           5.4350    1.9945    0.0000 C.3     1  UNL1       -0.0305
     20 C           5.9343    2.8609    0.0000 C.3     1  UNL1       -0.0261
     21 C           6.4371   -0.4005    0.0000 C.3     1  UNL1        0.0660
     22 C           5.6318    0.1824    0.0000 C.3     1  UNL1       -0.0226
     23 C           7.4350    1.9962    0.0000 C.3     1  UNL1       -0.0467
     24 C           8.0393   -0.3991    0.0000 C.3     1  UNL1        0.0160
     25 C           5.4266    3.7705    0.0000 C.3     1  UNL1        0.0209
     26 C           6.9343    2.8618    0.0000 C.3     1  UNL1       -0.0486
     27 C           7.7331   -1.3387    0.0000 C.3     1  UNL1        0.1731
     28 C           7.9358    1.1306    0.0000 C.3     1  UNL1       -0.0590
     29 C           4.3935    1.9775    0.0000 C.3     1  UNL1       -0.0311
     30 C           4.3850    3.7776    0.0000 C.2     1  UNL1       -0.0622
     31 C           5.9899    4.6978    0.0000 C.3     1  UNL1        0.0993
     32 C           3.8650    2.8751    0.0000 C.2     1  UNL1       -0.0838
     33 C           8.9909   -0.0917    0.0000 C.3     1  UNL1       -0.0572
     34 C           6.4266    3.7637    0.0000 C.3     1  UNL1       -0.0531
     35 C           7.7331   -2.3387    0.0000 C.3     1  UNL1        0.0054
     36 C           3.8345    4.7126    0.0000 C.3     1  UNL1       -0.0025
     37 C           5.4612    5.6453    0.0000 C.3     1  UNL1        0.1083
     38 C           4.3762    5.6527    0.0000 C.3     1  UNL1        0.0872
     39 C           6.8671   -2.8387    0.0000 C.3     1  UNL1       -0.0250
     40 C           8.8921   -2.6258    0.0000 C.3     1  UNL1        0.0397
     41 C           7.5056    5.5361    0.0000 C.3     1  UNL1        0.1879
     42 C           6.8671   -3.8387    0.0000 C.2     1  UNL1       -0.0510
     43 C           8.5054    5.5177    0.0000 C.3     1  UNL1        0.1341
     44 C           9.0213    6.3744    0.0000 C.3     1  UNL1        0.1137
     45 C           6.0010   -4.3387    0.0000 C.3     1  UNL1        0.0716
     46 C           7.5375    7.2679    0.0000 C.3     1  UNL1        0.0792
     47 C           7.7331   -4.3387    0.0000 C.2     1  UNL1       -0.0973
     48 C           8.5373    7.2494    0.0000 C.3     1  UNL1        0.1069
     49 C           5.1350   -5.8387    0.0000 C.3     1  UNL1        0.1883
     50 C           5.1350   -6.8387    0.0000 C.3     1  UNL1        0.1341
     51 C           4.2690   -7.3387    0.0000 C.3     1  UNL1        0.1141
     52 C           3.4030   -5.8387    0.0000 C.3     1  UNL1        0.1130
     53 C           3.4030   -6.8387    0.0000 C.3     1  UNL1        0.1119
     54 C           2.5369   -5.3387    0.0000 C.3     1  UNL1        0.0730
     55 H           5.0906    1.0382    0.0000 H       1  UNL1        0.0310
     56 H           7.9301    0.6819    0.0000 H       1  UNL1        0.0335
     57 H           5.0163    1.2548    0.0000 H       1  UNL1        0.0310
     58 H           6.3599    2.1252    0.0000 H       1  UNL1        0.0313
     59 H           5.7505   -0.9016    0.0000 H       1  UNL1        0.0600
     60 H           5.0647    0.4330    0.0000 H       1  UNL1        0.0293
     61 H           5.3231   -0.3552    0.0000 H       1  UNL1        0.0293
     62 H           7.9103    1.5981    0.0000 H       1  UNL1        0.0271
     63 H           7.9096    2.3952    0.0000 H       1  UNL1        0.0271
     64 H           8.1376    0.2130    0.0000 H       1  UNL1        0.0354
     65 H           7.5167    3.0744    0.0000 H       1  UNL1        0.0268
     66 H           6.8261    3.4723    0.0000 H       1  UNL1        0.0268
     67 H           7.9363    0.5106    0.0000 H       1  UNL1        0.0235
     68 H           8.5558    1.1312    0.0000 H       1  UNL1        0.0235
     69 H           7.9352    1.7506    0.0000 H       1  UNL1        0.0235
     70 H           3.8133    1.7590    0.0000 H       1  UNL1        0.0310
     71 H           4.5096    1.3685    0.0000 H       1  UNL1        0.0310
     72 H           6.3087    5.2296    0.0000 H       1  UNL1        0.0632
     73 H           3.2450    2.8722    0.0000 H       1  UNL1        0.0572
     74 H           9.1814   -0.6817    0.0000 H       1  UNL1        0.0234
     75 H           9.5808    0.0988    0.0000 H       1  UNL1        0.0234
     76 H           8.8003    0.4982    0.0000 H       1  UNL1        0.0234
     77 H           6.4224    3.1437    0.0000 H       1  UNL1        0.0239
     78 H           7.0466    3.7594    0.0000 H       1  UNL1        0.0239
     79 H           6.4309    4.3836    0.0000 H       1  UNL1        0.0239
     80 H           7.9451   -2.9213    0.0000 H       1  UNL1        0.0320
     81 H           8.3437   -2.2310    0.0000 H       1  UNL1        0.0320
     82 H           3.3582    5.1095    0.0000 H       1  UNL1        0.0336
     83 H           3.3620    4.3112    0.0000 H       1  UNL1        0.0336
     84 H           5.1559    6.1849    0.0000 H       1  UNL1        0.0645
     85 H           3.7562    5.6533    0.0000 H       1  UNL1        0.0623
     86 H           6.6550   -2.2561    0.0000 H       1  UNL1        0.0312
     87 H           6.2565   -2.9463    0.0000 H       1  UNL1        0.0312
     88 H           5.6661    7.0461    0.0000 H       1  UNL1        0.2100
     89 H           8.2856   -2.7548    0.0000 H       1  UNL1        0.0525
     90 H           9.0210   -3.2323    0.0000 H       1  UNL1        0.0525
     91 H           9.4985   -2.4969    0.0000 H       1  UNL1        0.0525
     92 H           7.8057    4.9936    0.0000 H       1  UNL1        0.0937
     93 H           3.2588    6.5220    0.0000 H       1  UNL1        0.2099
     94 H           9.1253    5.5063    0.0000 H       1  UNL1        0.0671
     95 H           9.3411    6.9055    0.0000 H       1  UNL1        0.0647
     96 H           5.7890   -3.7561    0.0000 H       1  UNL1        0.0608
     97 H           5.3905   -4.4463    0.0000 H       1  UNL1        0.0608
     98 H           7.6564    7.8764    0.0000 H       1  UNL1        0.0587
     99 H           6.9589    7.4906    0.0000 H       1  UNL1        0.0587
    100 H           7.7331   -4.9587    0.0000 H       1  UNL1        0.0535
    101 H           8.2700   -4.0287    0.0000 H       1  UNL1        0.0535
    102 H           8.2372    7.7920    0.0000 H       1  UNL1        0.0643
    103 H           9.6093    4.6312    0.0000 H       1  UNL1        0.2101
    104 H          10.3409    6.8871    0.0000 H       1  UNL1        0.2100
    105 H           8.7531    8.6487    0.0000 H       1  UNL1        0.2100
    106 H           5.1350   -5.2187    0.0000 H       1  UNL1        0.0938
    107 H           5.1350   -7.4587    0.0000 H       1  UNL1        0.0671
    108 H           3.7320   -7.6487    0.0000 H       1  UNL1        0.0648
    109 H           3.4030   -5.2187    0.0000 H       1  UNL1        0.0647
    110 H           2.8660   -6.5287    0.0000 H       1  UNL1        0.0647
    111 H           6.5380   -7.0287    0.0000 H       1  UNL1        0.2101
    112 H           1.9264   -5.2310    0.0000 H       1  UNL1        0.0584
    113 H           2.3249   -5.9213    0.0000 H       1  UNL1        0.0584
    114 H           3.7320   -8.6487    0.0000 H       1  UNL1        0.2100
    115 H           2.0000   -7.0287    0.0000 H       1  UNL1        0.2100
    116 H           2.0000   -4.0287    0.0000 H       1  UNL1        0.2095
@<TRIPOS>BOND
     1     1    21    1
     2     1    27    1
     3     2    27    1
     4     2    40    1
     5    31     3    1
     6    41     3    1
     7    37     4    1
     8     4    88    1
     9    38     5    1
    10     5    93    1
    11     6    41    1
    12     6    46    1
    13    43     7    1
    14     7   103    1
    15     8    45    1
    16    49     8    1
    17    44     9    1
    18     9   104    1
    19    48    10    1
    20    10   105    1
    21    11    49    1
    22    11    52    1
    23    50    12    1
    24    12   111    1
    25    51    13    1
    26    13   114    1
    27    53    14    1
    28    14   115    1
    29    15    54    1
    30    15   116    1
    31    16    17    1
    32    16    18    1
    33    16    23    1
    34    16    28    1
    35    17    19    1
    36    17    22    1
    37    17    55    1
    38    18    21    1
    39    18    24    1
    40    18    56    1
    41    19    20    1
    42    19    29    1
    43    19    57    1
    44    20    25    1
    45    20    26    1
    46    20    58    1
    47    21    22    1
    48    21    59    1
    49    22    60    1
    50    22    61    1
    51    23    26    1
    52    23    62    1
    53    23    63    1
    54    24    27    1
    55    24    33    1
    56    24    64    1
    57    25    30    1
    58    25    31    1
    59    25    34    1
    60    26    65    1
    61    26    66    1
    62    27    35    1
    63    28    67    1
    64    28    68    1
    65    28    69    1
    66    29    32    1
    67    29    70    1
    68    29    71    1
    69    30    32    2
    70    30    36    1
    71    31    37    1
    72    31    72    1
    73    32    73    1
    74    33    74    1
    75    33    75    1
    76    33    76    1
    77    34    77    1
    78    34    78    1
    79    34    79    1
    80    35    39    1
    81    35    80    1
    82    35    81    1
    83    36    38    1
    84    36    82    1
    85    36    83    1
    86    37    38    1
    87    37    84    1
    88    38    85    1
    89    39    42    1
    90    39    86    1
    91    39    87    1
    92    40    89    1
    93    40    90    1
    94    40    91    1
    95    41    43    1
    96    41    92    1
    97    42    45    1
    98    42    47    2
    99    43    44    1
   100    43    94    1
   101    44    48    1
   102    44    95    1
   103    45    96    1
   104    45    97    1
   105    46    48    1
   106    46    98    1
   107    46    99    1
   108    47   100    1
   109    47   101    1
   110    48   102    1
   111    49    50    1
   112    49   106    1
   113    50    51    1
   114    50   107    1
   115    51    53    1
   116    51   108    1
   117    52    53    1
   118    52    54    1
   119    52   109    1
   120    53   110    1
   121    54   112    1
   122    54   113    1
