@<TRIPOS>MOLECULE
IMPHY011506
 34 35 0 0 0
SMALL
GASTEIGER

@<TRIPOS>ATOM
      1 O           8.1240    1.2552    0.0000 O.2     1  UNL1       -0.2917
      2 O           2.5369    0.5000    0.0000 O.3     1  UNL1       -0.3947
      3 C           8.3969   -0.5000    0.0000 C.3     1  UNL1        0.0233
      4 C           7.8133   -1.3047    0.0000 C.3     1  UNL1       -0.0174
      5 C           6.8671   -1.0000    0.0000 C.ar    1  UNL1       -0.0357
      6 C           6.8671    0.0000    0.0000 C.ar    1  UNL1        0.0240
      7 C           7.8133    0.3047    0.0000 C.2     1  UNL1        0.1668
      8 C           6.0010    0.5000    0.0000 C.ar    1  UNL1       -0.0362
      9 C           5.1350    0.0000    0.0000 C.ar    1  UNL1       -0.0387
     10 C           6.0010   -1.5000    0.0000 C.ar    1  UNL1       -0.0547
     11 C           5.1350   -1.0000    0.0000 C.ar    1  UNL1       -0.0467
     12 C           9.3969   -0.5000    0.0000 C.3     1  UNL1       -0.0551
     13 C           4.2690    0.5000    0.0000 C.3     1  UNL1       -0.0039
     14 C           6.0010    1.5000    0.0000 C.3     1  UNL1       -0.0388
     15 C           4.2690   -1.5000    0.0000 C.3     1  UNL1       -0.0394
     16 C           3.4030    0.0000    0.0000 C.3     1  UNL1        0.0482
     17 H           8.6786   -1.0523    0.0000 H       1  UNL1        0.0381
     18 H           7.5622   -1.8716    0.0000 H       1  UNL1        0.0320
     19 H           8.3507   -1.6140    0.0000 H       1  UNL1        0.0320
     20 H           6.0010   -2.1200    0.0000 H       1  UNL1        0.0623
     21 H           9.3969   -1.1200    0.0000 H       1  UNL1        0.0237
     22 H          10.0169   -0.5000    0.0000 H       1  UNL1        0.0237
     23 H           9.3969    0.1200    0.0000 H       1  UNL1        0.0237
     24 H           4.6675    0.9749    0.0000 H       1  UNL1        0.0335
     25 H           3.8705    0.9749    0.0000 H       1  UNL1        0.0335
     26 H           6.6210    1.5000    0.0000 H       1  UNL1        0.0278
     27 H           6.0010    2.1200    0.0000 H       1  UNL1        0.0278
     28 H           5.3810    1.5000    0.0000 H       1  UNL1        0.0278
     29 H           3.9590   -0.9631    0.0000 H       1  UNL1        0.0278
     30 H           3.7320   -1.8100    0.0000 H       1  UNL1        0.0278
     31 H           4.5790   -2.0369    0.0000 H       1  UNL1        0.0278
     32 H           3.0044   -0.4749    0.0000 H       1  UNL1        0.0560
     33 H           3.8015   -0.4749    0.0000 H       1  UNL1        0.0560
     34 H           2.0000    0.1900    0.0000 H       1  UNL1        0.2094
@<TRIPOS>BOND
     1     1     7    2
     2     2    16    1
     3     2    34    1
     4     3     4    1
     5     3     7    1
     6     3    12    1
     7     3    17    1
     8     4     5    1
     9     4    18    1
    10     4    19    1
    11     5     6   ar
    12     5    10   ar
    13     6     7    1
    14     6     8   ar
    15     8     9   ar
    16     8    14    1
    17     9    11   ar
    18     9    13    1
    19    10    11   ar
    20    10    20    1
    21    11    15    1
    22    12    21    1
    23    12    22    1
    24    12    23    1
    25    13    16    1
    26    13    24    1
    27    13    25    1
    28    14    26    1
    29    14    27    1
    30    14    28    1
    31    15    29    1
    32    15    30    1
    33    15    31    1
    34    16    32    1
    35    16    33    1
