@<TRIPOS>MOLECULE
IMPHY010785
 23 22 0 0 0
SMALL
GASTEIGER

@<TRIPOS>ATOM
      1 C           8.9282   -0.0600    0.0000 C.2     1  UNL1       -0.0612
      2 C           9.7942   -0.5600    0.0000 C.2     1  UNL1       -0.0623
      3 C           8.9282    0.9400    0.0000 C.2     1  UNL1       -0.0535
      4 C           9.7942   -1.5600    0.0000 C.2     1  UNL1       -0.0689
      5 C           8.0622    1.4400    0.0000 C.2     1  UNL1       -0.0106
      6 C          10.6603   -2.0600    0.0000 C.2     1  UNL1       -0.0987
      7 C           7.1962    0.9400    0.0000 C.1     1  UNL1       -0.0602
      8 C           2.0000   -2.0600    0.0000 C.3     1  UNL1       -0.0016
      9 C           6.3301    0.4400    0.0000 C.1     1  UNL1       -0.0092
     10 C           2.8660   -1.5600    0.0000 C.1     1  UNL1       -0.0918
     11 C           5.4641   -0.0600    0.0000 C.1     1  UNL1       -0.0006
     12 C           3.7320   -1.0600    0.0000 C.1     1  UNL1       -0.0142
     13 C           4.5981   -0.5600    0.0000 C.1     1  UNL1       -0.0010
     14 H           8.3913   -0.3700    0.0000 H       1  UNL1        0.0618
     15 H          10.3312   -0.2500    0.0000 H       1  UNL1        0.0617
     16 H           9.4651    1.2500    0.0000 H       1  UNL1        0.0624
     17 H           9.2573   -1.8700    0.0000 H       1  UNL1        0.0612
     18 H           8.0622    2.0600    0.0000 H       1  UNL1        0.0712
     19 H          10.6603   -2.6800    0.0000 H       1  UNL1        0.0535
     20 H          11.1972   -1.7500    0.0000 H       1  UNL1        0.0535
     21 H           1.6900   -1.5231    0.0000 H       1  UNL1        0.0362
     22 H           1.4631   -2.3700    0.0000 H       1  UNL1        0.0362
     23 H           2.3100   -2.5969    0.0000 H       1  UNL1        0.0362
@<TRIPOS>BOND
     1     1     2    2
     2     1     3    1
     3     1    14    1
     4     2     4    1
     5     2    15    1
     6     3     5    2
     7     3    16    1
     8     4     6    2
     9     4    17    1
    10     5     7    1
    11     5    18    1
    12     6    19    1
    13     6    20    1
    14     7     9    3
    15     8    10    1
    16     8    21    1
    17     8    22    1
    18     8    23    1
    19     9    11    1
    20    10    12    3
    21    11    13    3
    22    12    13    1
