@<TRIPOS>MOLECULE
IMPHY006894
 53 56 0 0 0
SMALL
GASTEIGER

@<TRIPOS>ATOM
      1 O           5.1350   -2.8762    0.0000 O.3     1  UNL1       -0.3313
      2 O           6.8671   -2.8762    0.0000 O.3     1  UNL1       -0.4607
      3 O           5.1350   -5.8762    0.0000 O.3     1  UNL1       -0.3864
      4 O           3.4030   -4.8762    0.0000 O.3     1  UNL1       -0.3865
      5 O           6.8671   -4.8762    0.0000 O.3     1  UNL1       -0.3829
      6 O           2.5369   -3.3762    0.0000 O.3     1  UNL1       -0.3924
      7 O           8.6230    0.1863    0.0000 O.2     1  UNL1       -0.4620
      8 O           6.0308    1.6963    0.0000 O.2     1  UNL1       -0.2864
      9 O           7.7782    5.6896    0.0000 O.3     1  UNL1       -0.4951
     10 C           5.1350   -4.8762    0.0000 C.3     1  UNL1        0.1152
     11 C           4.2690   -4.3762    0.0000 C.3     1  UNL1        0.1120
     12 C           6.0010   -4.3762    0.0000 C.3     1  UNL1        0.1454
     13 C           4.2690   -3.3762    0.0000 C.3     1  UNL1        0.1140
     14 C           6.0010   -3.3762    0.0000 C.3     1  UNL1        0.2308
     15 C           3.4030   -2.8762    0.0000 C.3     1  UNL1        0.0731
     16 C           6.8671   -1.8762    0.0000 C.ar    1  UNL1        0.1275
     17 C           7.7671   -1.3519    0.0000 C.ar    1  UNL1        0.0232
     18 C           5.9670   -1.3519    0.0000 C.ar    1  UNL1       -0.0189
     19 C           7.7551   -0.3104    0.0000 C.ar    1  UNL1        0.1419
     20 C           6.8910    0.1930    0.0000 C.ar    1  UNL1        0.0648
     21 C           5.9790   -0.3104    0.0000 C.ar    1  UNL1       -0.0439
     22 C           6.8948    1.1930    0.0000 C.ar    1  UNL1        0.2001
     23 C           7.7628    1.6896    0.0000 C.ar    1  UNL1        0.0643
     24 C           8.6269    1.1863    0.0000 C.ar    1  UNL1        0.1038
     25 C           7.7666    2.6896    0.0000 C.ar    1  UNL1       -0.0110
     26 C           6.9026    3.1929    0.0000 C.ar    1  UNL1       -0.0504
     27 C           8.6346    3.1862    0.0000 C.ar    1  UNL1       -0.0504
     28 C           6.9064    4.1929    0.0000 C.ar    1  UNL1       -0.0194
     29 C           8.6384    4.1862    0.0000 C.ar    1  UNL1       -0.0194
     30 C           7.7744    4.6896    0.0000 C.ar    1  UNL1        0.1201
     31 C           8.6462    6.1862    0.0000 C.3     1  UNL1        0.0788
     32 H           4.5981   -5.1862    0.0000 H       1  UNL1        0.0648
     33 H           4.2690   -4.9962    0.0000 H       1  UNL1        0.0647
     34 H           6.0010   -4.9962    0.0000 H       1  UNL1        0.0683
     35 H           4.2690   -2.7562    0.0000 H       1  UNL1        0.0647
     36 H           6.0010   -2.7562    0.0000 H       1  UNL1        0.1084
     37 H           3.8015   -2.4013    0.0000 H       1  UNL1        0.0584
     38 H           3.0044   -2.4013    0.0000 H       1  UNL1        0.0584
     39 H           4.5981   -6.1862    0.0000 H       1  UNL1        0.2100
     40 H           3.4030   -5.4962    0.0000 H       1  UNL1        0.2100
     41 H           6.8671   -5.4962    0.0000 H       1  UNL1        0.2102
     42 H           2.0000   -3.0662    0.0000 H       1  UNL1        0.2095
     43 H           8.3064   -1.6578    0.0000 H       1  UNL1        0.0691
     44 H           5.4277   -1.6578    0.0000 H       1  UNL1        0.0654
     45 H           5.4470    0.0079    0.0000 H       1  UNL1        0.0627
     46 H           9.1650    1.4942    0.0000 H       1  UNL1        0.1037
     47 H           6.3644    2.8850    0.0000 H       1  UNL1        0.0625
     48 H           9.1703    2.8742    0.0000 H       1  UNL1        0.0625
     49 H           6.3707    4.5050    0.0000 H       1  UNL1        0.0654
     50 H           9.1766    4.4942    0.0000 H       1  UNL1        0.0654
     51 H           8.9541    5.6481    0.0000 H       1  UNL1        0.0660
     52 H           9.1843    6.4942    0.0000 H       1  UNL1        0.0660
     53 H           8.3382    6.7244    0.0000 H       1  UNL1        0.0660
@<TRIPOS>BOND
     1     1    13    1
     2     1    14    1
     3    14     2    1
     4     2    16    1
     5    10     3    1
     6     3    39    1
     7    11     4    1
     8     4    40    1
     9    12     5    1
    10     5    41    1
    11     6    15    1
    12     6    42    1
    13     7    19   ar
    14     7    24   ar
    15     8    22    2
    16     9    30    1
    17     9    31    1
    18    10    11    1
    19    10    12    1
    20    10    32    1
    21    11    13    1
    22    11    33    1
    23    12    14    1
    24    12    34    1
    25    13    15    1
    26    13    35    1
    27    14    36    1
    28    15    37    1
    29    15    38    1
    30    16    17   ar
    31    16    18   ar
    32    17    19   ar
    33    17    43    1
    34    18    21   ar
    35    18    44    1
    36    19    20   ar
    37    20    21   ar
    38    20    22   ar
    39    21    45    1
    40    22    23   ar
    41    23    24   ar
    42    23    25    1
    43    24    46    1
    44    25    26   ar
    45    25    27   ar
    46    26    28   ar
    47    26    47    1
    48    27    29   ar
    49    27    48    1
    50    28    30   ar
    51    28    49    1
    52    29    30   ar
    53    29    50    1
    54    31    51    1
    55    31    52    1
    56    31    53    1
