@<TRIPOS>MOLECULE
IMPHY015408
 17 17 0 0 0
SMALL
GASTEIGER

@<TRIPOS>ATOM
      1 O           2.8802    1.5236    0.0000 O.2     1  UNL1       -0.2733
      2 O           5.7281   -0.5455    0.0000 O.2     1  UNL1       -0.2524
      3 N           3.9680   -0.8242    0.0000 N.am    1  UNL1       -0.2878
      4 N           4.4680    0.7146    0.0000 N.am    1  UNL1       -0.2386
      5 C           3.1590   -0.2365    0.0000 C.3     1  UNL1        0.1010
      6 C           2.2079   -0.5455    0.0000 C.3     1  UNL1       -0.0288
      7 C           3.4680    0.7146    0.0000 C.2     1  UNL1        0.2407
      8 C           4.7770   -0.2365    0.0000 C.2     1  UNL1        0.3065
      9 C           2.0000   -1.5236    0.0000 C.3     1  UNL1       -0.0631
     10 H           3.0620   -0.8488    0.0000 H       1  UNL1        0.0595
     11 H           2.1216    0.0685    0.0000 H       1  UNL1        0.0285
     12 H           1.5883   -0.5238    0.0000 H       1  UNL1        0.0285
     13 H           3.9680   -1.4442    0.0000 H       1  UNL1        0.1510
     14 H           4.8324    1.2162    0.0000 H       1  UNL1        0.1591
     15 H           1.3936   -1.3947    0.0000 H       1  UNL1        0.0230
     16 H           1.8711   -2.1301    0.0000 H       1  UNL1        0.0230
     17 H           2.6064   -1.6525    0.0000 H       1  UNL1        0.0230
@<TRIPOS>BOND
     1     1     7    2
     2     2     8    2
     3     3     5    1
     4     3     8   am
     5     3    13    1
     6     4     7   am
     7     4     8   am
     8     4    14    1
     9     5     6    1
    10     5     7    1
    11     5    10    1
    12     6     9    1
    13     6    11    1
    14     6    12    1
    15     9    15    1
    16     9    16    1
    17     9    17    1
