@<TRIPOS>MOLECULE
IMPHY004717
 32 33 0 0 0
SMALL
GASTEIGER

@<TRIPOS>ATOM
      1 O           2.5369   -0.9050    0.0000 O.3     1  UNL1       -0.5059
      2 O           8.5991    1.5950    0.0000 O.3     1  UNL1       -0.5033
      3 O           4.2690   -3.9050    0.0000 O.3     1  UNL1       -0.5066
      4 O           8.5991    3.5950    0.0000 O.3     1  UNL1       -0.5033
      5 O           3.4030    0.5950    0.0000 O.2     1  UNL1       -0.2872
      6 C           4.2690   -0.9050    0.0000 C.ar    1  UNL1        0.0632
      7 C           6.0010    2.0950    0.0000 C.ar    1  UNL1       -0.0212
      8 C           3.4030   -1.4050    0.0000 C.ar    1  UNL1        0.1311
      9 C           4.2690    0.0950    0.0000 C.2     1  UNL1        0.1896
     10 C           5.1350    1.5950    0.0000 C.2     1  UNL1       -0.0508
     11 C           5.1350   -1.4050    0.0000 C.ar    1  UNL1       -0.0440
     12 C           6.8671    1.5950    0.0000 C.ar    1  UNL1       -0.0094
     13 C           6.0010    3.0950    0.0000 C.ar    1  UNL1       -0.0509
     14 C           5.1350    0.5950    0.0000 C.2     1  UNL1       -0.0137
     15 C           7.7331    2.0950    0.0000 C.ar    1  UNL1        0.1588
     16 C           3.4030   -2.4050    0.0000 C.ar    1  UNL1        0.0220
     17 C           5.1350   -2.4050    0.0000 C.ar    1  UNL1       -0.0193
     18 C           4.2690   -2.9050    0.0000 C.ar    1  UNL1        0.1204
     19 C           7.7331    3.0950    0.0000 C.ar    1  UNL1        0.1582
     20 C           6.8671    3.5950    0.0000 C.ar    1  UNL1       -0.0160
     21 H           4.5981    1.9050    0.0000 H       1  UNL1        0.0625
     22 H           5.6720   -1.0950    0.0000 H       1  UNL1        0.0627
     23 H           6.8671    0.9750    0.0000 H       1  UNL1        0.0661
     24 H           5.4641    3.4050    0.0000 H       1  UNL1        0.0625
     25 H           5.6720    0.2850    0.0000 H       1  UNL1        0.0656
     26 H           2.8660   -2.7150    0.0000 H       1  UNL1        0.0691
     27 H           5.6720   -2.7150    0.0000 H       1  UNL1        0.0654
     28 H           6.8671    4.2150    0.0000 H       1  UNL1        0.0655
     29 H           2.0000   -1.2150    0.0000 H       1  UNL1        0.2922
     30 H           9.1360    1.9050    0.0000 H       1  UNL1        0.2923
     31 H           4.8059   -4.2150    0.0000 H       1  UNL1        0.2921
     32 H           8.5991    4.2150    0.0000 H       1  UNL1        0.2923
@<TRIPOS>BOND
     1     1     8    1
     2     1    29    1
     3     2    15    1
     4     2    30    1
     5     3    18    1
     6     3    31    1
     7     4    19    1
     8     4    32    1
     9     5     9    2
    10     6     8   ar
    11     6     9    1
    12     6    11   ar
    13     7    10    1
    14     7    12   ar
    15     7    13   ar
    16     8    16   ar
    17     9    14    1
    18    10    14    2
    19    10    21    1
    20    11    17   ar
    21    11    22    1
    22    12    15   ar
    23    12    23    1
    24    13    20   ar
    25    13    24    1
    26    14    25    1
    27    15    19   ar
    28    16    18   ar
    29    16    26    1
    30    17    18   ar
    31    17    27    1
    32    19    20   ar
    33    20    28    1
