@<TRIPOS>MOLECULE
IMPHY013887
 44 46 0 0 0
SMALL
GASTEIGER

@<TRIPOS>ATOM
      1 O           5.1350   -1.1176    0.0000 O.3     1  UNL1       -0.3404
      2 O           6.8671   -1.1176    0.0000 O.3     1  UNL1       -0.3024
      3 O           5.1350   -4.1175    0.0000 O.3     1  UNL1       -0.3864
      4 O           3.4030   -3.1176    0.0000 O.3     1  UNL1       -0.3865
      5 O           6.8671   -3.1176    0.0000 O.3     1  UNL1       -0.3841
      6 O           2.5369   -1.6176    0.0000 O.3     1  UNL1       -0.3924
      7 O           7.7331    0.3825    0.0000 O.3     1  UNL1       -0.4525
      8 O           5.1350   -0.1175    0.0000 O.2     1  UNL1       -0.2686
      9 O           9.5191    3.4276    0.0000 O.3     1  UNL1       -0.4950
     10 N           6.0010    1.3824    0.0000 N.am    1  UNL1       -0.2774
     11 C           5.1350   -3.1176    0.0000 C.3     1  UNL1        0.1141
     12 C           4.2690   -2.6176    0.0000 C.3     1  UNL1        0.1119
     13 C           6.0010   -2.6176    0.0000 C.3     1  UNL1        0.1343
     14 C           4.2690   -1.6176    0.0000 C.3     1  UNL1        0.1130
     15 C           6.0010   -1.6176    0.0000 C.3     1  UNL1        0.1923
     16 C           3.4030   -1.1176    0.0000 C.3     1  UNL1        0.0730
     17 C           6.8671   -0.1175    0.0000 C.3     1  UNL1        0.2817
     18 C           6.0010    0.3825    0.0000 C.2     1  UNL1        0.2864
     19 C           7.7331    1.3824    0.0000 C.ar    1  UNL1        0.1490
     20 C           6.8671    1.8824    0.0000 C.ar    1  UNL1        0.0761
     21 C           8.6431    1.8893    0.0000 C.ar    1  UNL1        0.0237
     22 C           6.8510    2.9240    0.0000 C.ar    1  UNL1       -0.0334
     23 C           8.6511    2.9309    0.0000 C.ar    1  UNL1        0.1237
     24 C           7.7490    3.4517    0.0000 C.ar    1  UNL1       -0.0180
     25 C           9.5229    4.4276    0.0000 C.3     1  UNL1        0.0788
     26 H           4.5981   -3.4276    0.0000 H       1  UNL1        0.0648
     27 H           4.2690   -3.2376    0.0000 H       1  UNL1        0.0647
     28 H           6.0010   -3.2376    0.0000 H       1  UNL1        0.0671
     29 H           4.2690   -0.9975    0.0000 H       1  UNL1        0.0647
     30 H           6.0010   -0.9975    0.0000 H       1  UNL1        0.0939
     31 H           3.8015   -0.6426    0.0000 H       1  UNL1        0.0584
     32 H           3.0044   -0.6426    0.0000 H       1  UNL1        0.0584
     33 H           6.3301   -0.4275    0.0000 H       1  UNL1        0.1162
     34 H           4.5981   -4.4276    0.0000 H       1  UNL1        0.2100
     35 H           3.4030   -3.7376    0.0000 H       1  UNL1        0.2100
     36 H           6.8671   -3.7376    0.0000 H       1  UNL1        0.2101
     37 H           2.0000   -1.3076    0.0000 H       1  UNL1        0.2095
     38 H           5.4641    1.6924    0.0000 H       1  UNL1        0.1551
     39 H           9.1764    1.5731    0.0000 H       1  UNL1        0.0691
     40 H           6.3105    3.2277    0.0000 H       1  UNL1        0.0638
     41 H           7.7466    4.0717    0.0000 H       1  UNL1        0.0655
     42 H          10.1429    4.4252    0.0000 H       1  UNL1        0.0660
     43 H           9.5253    5.0475    0.0000 H       1  UNL1        0.0660
     44 H           8.9029    4.4299    0.0000 H       1  UNL1        0.0660
@<TRIPOS>BOND
     1     1    14    1
     2     1    15    1
     3    15     2    1
     4     2    17    1
     5    11     3    1
     6     3    34    1
     7    12     4    1
     8     4    35    1
     9    13     5    1
    10     5    36    1
    11     6    16    1
    12     6    37    1
    13     7    17    1
    14     7    19    1
    15     8    18    2
    16     9    23    1
    17     9    25    1
    18    10    18   am
    19    10    20    1
    20    10    38    1
    21    11    12    1
    22    11    13    1
    23    11    26    1
    24    12    14    1
    25    12    27    1
    26    13    15    1
    27    13    28    1
    28    14    16    1
    29    14    29    1
    30    15    30    1
    31    16    31    1
    32    16    32    1
    33    17    18    1
    34    17    33    1
    35    19    20   ar
    36    19    21   ar
    37    20    22   ar
    38    21    23   ar
    39    21    39    1
    40    22    24   ar
    41    22    40    1
    42    23    24   ar
    43    24    41    1
    44    25    42    1
    45    25    43    1
    46    25    44    1
