@<TRIPOS>MOLECULE
IMPHY011249
 17 16 0 0 0
SMALL
GASTEIGER

@<TRIPOS>ATOM
      1 S           8.0622    0.5000    0.0000 S.2     1  UNL1        0.0203
      2 N           6.3301   -0.5000    0.0000 N.2     1  UNL1       -0.2346
      3 C           4.5981   -0.5000    0.0000 C.3     1  UNL1       -0.0292
      4 C           3.7320    0.0000    0.0000 C.3     1  UNL1       -0.0333
      5 C           5.4641    0.0000    0.0000 C.3     1  UNL1        0.0498
      6 C           2.8660   -0.5000    0.0000 C.2     1  UNL1       -0.0911
      7 C           2.0000    0.0000    0.0000 C.2     1  UNL1       -0.1026
      8 C           7.1962    0.0000    0.0000 C.1     1  UNL1        0.0358
      9 H           4.1996   -0.9749    0.0000 H       1  UNL1        0.0286
     10 H           4.9966   -0.9749    0.0000 H       1  UNL1        0.0286
     11 H           4.1306    0.4749    0.0000 H       1  UNL1        0.0308
     12 H           3.3335    0.4749    0.0000 H       1  UNL1        0.0308
     13 H           5.8626    0.4749    0.0000 H       1  UNL1        0.0516
     14 H           5.0656    0.4749    0.0000 H       1  UNL1        0.0516
     15 H           2.8660   -1.1200    0.0000 H       1  UNL1        0.0566
     16 H           2.0000    0.6200    0.0000 H       1  UNL1        0.0532
     17 H           1.4631   -0.3100    0.0000 H       1  UNL1        0.0532
@<TRIPOS>BOND
     1     1     8    2
     2     2     5    1
     3     2     8    2
     4     3     4    1
     5     3     5    1
     6     3     9    1
     7     3    10    1
     8     4     6    1
     9     4    11    1
    10     4    12    1
    11     5    13    1
    12     5    14    1
    13     6     7    2
    14     6    15    1
    15     7    16    1
    16     7    17    1
