@<TRIPOS>MOLECULE
IMPHY007201
 28 28 0 0 0
SMALL
GASTEIGER

@<TRIPOS>ATOM
      1 O           2.8660   -1.2500    0.0000 O.3     1  UNL1       -0.4948
      2 C           4.5981    1.7500    0.0000 C.3     1  UNL1       -0.0214
      3 C           4.5981    0.7500    0.0000 C.ar    1  UNL1       -0.0413
      4 C           3.7320    0.2500    0.0000 C.ar    1  UNL1       -0.0163
      5 C           5.4641    2.2500    0.0000 C.3     1  UNL1       -0.0586
      6 C           3.7320    2.2500    0.0000 C.3     1  UNL1       -0.0586
      7 C           5.4641    0.2500    0.0000 C.ar    1  UNL1       -0.0579
      8 C           3.7320   -0.7500    0.0000 C.ar    1  UNL1        0.1232
      9 C           4.5981   -1.2500    0.0000 C.ar    1  UNL1       -0.0088
     10 C           5.4641   -0.7500    0.0000 C.ar    1  UNL1       -0.0551
     11 C           4.5981   -2.2500    0.0000 C.3     1  UNL1       -0.0362
     12 C           2.0000   -0.7500    0.0000 C.3     1  UNL1        0.0788
     13 H           4.5981    2.3700    0.0000 H       1  UNL1        0.0343
     14 H           3.1951    0.5600    0.0000 H       1  UNL1        0.0657
     15 H           5.7741    1.7131    0.0000 H       1  UNL1        0.0235
     16 H           6.0010    2.5600    0.0000 H       1  UNL1        0.0235
     17 H           5.1541    2.7869    0.0000 H       1  UNL1        0.0235
     18 H           4.0420    2.7869    0.0000 H       1  UNL1        0.0235
     19 H           3.1951    2.5600    0.0000 H       1  UNL1        0.0235
     20 H           3.4220    1.7131    0.0000 H       1  UNL1        0.0235
     21 H           6.0010    0.5600    0.0000 H       1  UNL1        0.0620
     22 H           6.0010   -1.0600    0.0000 H       1  UNL1        0.0621
     23 H           3.9781   -2.2500    0.0000 H       1  UNL1        0.0279
     24 H           4.5981   -2.8700    0.0000 H       1  UNL1        0.0279
     25 H           5.2181   -2.2500    0.0000 H       1  UNL1        0.0279
     26 H           2.3100   -0.2131    0.0000 H       1  UNL1        0.0660
     27 H           1.4631   -0.4400    0.0000 H       1  UNL1        0.0660
     28 H           1.6900   -1.2869    0.0000 H       1  UNL1        0.0660
@<TRIPOS>BOND
     1     1     8    1
     2     1    12    1
     3     2     3    1
     4     2     5    1
     5     2     6    1
     6     2    13    1
     7     3     4   ar
     8     3     7   ar
     9     4     8   ar
    10     4    14    1
    11     5    15    1
    12     5    16    1
    13     5    17    1
    14     6    18    1
    15     6    19    1
    16     6    20    1
    17     7    10   ar
    18     7    21    1
    19     8     9   ar
    20     9    10   ar
    21     9    11    1
    22    10    22    1
    23    11    23    1
    24    11    24    1
    25    11    25    1
    26    12    26    1
    27    12    27    1
    28    12    28    1
