@<TRIPOS>MOLECULE
IMPHY010775
 43 48 0 0 0
SMALL
GASTEIGER

@<TRIPOS>ATOM
      1 C           6.6230   -2.0267    0.0000 C.ar    1  UNL1        0.0695
      2 N           5.6096   -2.5696    0.0000 N.ar    1  UNL1       -0.2486
      3 C           6.6230   -0.7057    0.0000 C.ar    1  UNL1       -0.0045
      4 C           8.8849   -5.9896    0.0000 C.3     1  UNL1        0.1330
      5 C           8.8849   -4.6687    0.0000 C.3     1  UNL1        0.0164
      6 C           7.7630   -2.6781    0.0000 C.3     1  UNL1        0.0978
      7 N           8.8849   -2.0267    0.0000 N.3     1  UNL1       -0.2688
      8 C           4.5420   -1.8638    0.0000 C.ar    1  UNL1        0.0837
      9 C           4.5420   -0.7057    0.0000 C.ar    1  UNL1        0.0151
     10 C          10.0430   -4.0172    0.0000 C.3     1  UNL1        0.0203
     11 C          11.1469   -5.9896    0.0000 C.3     1  UNL1        0.1998
     12 C          13.4450   -5.9896    0.0000 C.2     1  UNL1        0.3414
     13 C           7.7630   -4.0172    0.0000 C.3     1  UNL1        0.0227
     14 C          10.0430   -6.6592    0.0000 C.3     1  UNL1        0.2021
     15 C          14.6755   -6.7496    0.0000 C.ar    1  UNL1        0.0819
     16 C          16.9375   -8.0887    0.0000 C.ar    1  UNL1        0.2061
     17 C           7.7630   -6.6954    0.0000 C.2     1  UNL1        0.3192
     18 O          12.3050   -6.6592    0.0000 O.3     1  UNL1       -0.4465
     19 C          10.0430   -2.6781    0.0000 C.3     1  UNL1        0.0725
     20 C          15.8336   -8.7221    0.0000 C.ar    1  UNL1        0.1757
     21 C          16.9375   -6.7496    0.0000 C.ar    1  UNL1        0.1757
     22 C          11.1469   -4.6687    0.0000 C.3     1  UNL1        0.0477
     23 C           7.7630   -0.0362    0.0000 C.3     1  UNL1        0.0450
     24 C          14.6755   -8.0887    0.0000 C.ar    1  UNL1        0.0467
     25 C          15.8336   -6.0801    0.0000 C.ar    1  UNL1        0.0467
     26 C           3.4201   -2.6420    0.0000 C.ar    1  UNL1        0.0559
     27 C           3.4201    0.0000    0.0000 C.ar    1  UNL1        0.0043
     28 C           8.8849   -0.7057    0.0000 C.3     1  UNL1        0.0771
     29 O          13.4450   -4.6687    0.0000 O.2     1  UNL1       -0.2449
     30 O           6.6230   -6.0258    0.0000 O.2     1  UNL1       -0.2500
     31 C           2.2981   -1.9724    0.0000 C.ar    1  UNL1        0.1402
     32 O          10.0430   -7.9621    0.0000 O.3     1  UNL1       -0.2187
     33 O          18.0956   -8.7583    0.0000 O.3     1  UNL1       -0.4654
     34 C           2.2981   -0.6333    0.0000 C.ar    1  UNL1        0.0370
     35 O           7.7630   -7.9621    0.0000 O.3     1  UNL1       -0.4443
     36 O          15.8336  -10.0792    0.0000 O.3     1  UNL1       -0.4683
     37 O          18.0956   -6.0801    0.0000 O.3     1  UNL1       -0.4683
     38 O           1.1943   -2.7324    0.0000 O.3     1  UNL1       -0.4714
     39 C          18.0956  -10.0792    0.0000 C.3     1  UNL1        0.2528
     40 C          16.9375  -10.7307    0.0000 C.3     1  UNL1        0.2526
     41 C          18.0956   -4.7772    0.0000 C.3     1  UNL1        0.2526
     42 C           8.8849   -8.6316    0.0000 C.3     1  UNL1        0.2556
     43 C           0.0000   -2.0991    0.0000 C.3     1  UNL1        0.2525
@<TRIPOS>BOND
     1     1     2   ar
     2     1     3   ar
     3     1     6    1
     4     2     8   ar
     5     3     9   ar
     6     3    23    1
     7     4     5    1
     8     4    14    1
     9     4    17    1
    10     5    13    1
    11     5    10    1
    12     6     7    1
    13     6    13    1
    14     7    19    1
    15     7    28    1
    16     8    26   ar
    17     8     9   ar
    18     9    27   ar
    19    10    22    1
    20    10    19    1
    21    11    22    1
    22    11    18    1
    23    11    14    1
    24    12    18    1
    25    12    15    1
    26    12    29    2
    27    14    32    1
    28    15    24   ar
    29    15    25   ar
    30    16    21   ar
    31    16    33    1
    32    16    20   ar
    33    17    30    2
    34    17    35    1
    35    20    24   ar
    36    20    36    1
    37    21    25   ar
    38    21    37    1
    39    23    28    1
    40    26    31   ar
    41    27    34   ar
    42    31    38    1
    43    31    34   ar
    44    33    39    1
    45    35    42    1
    46    36    40    1
    47    37    41    1
    48    38    43    1
