@<TRIPOS>MOLECULE
IMPHY009810
 56 60 0 0 0
SMALL
GASTEIGER

@<TRIPOS>ATOM
      1 O           4.8966    0.4587    0.0000 O.3     1  UNL1       -0.3779
      2 O           8.1100   -1.6303    0.0000 O.3     1  UNL1       -0.4672
      3 O           7.1544   -1.9251    0.0000 O.2     1  UNL1       -0.2498
      4 O           2.5282   -1.4937    0.0000 O.3     1  UNL1       -0.4951
      5 N           7.1985    1.7815    0.0000 N.3     1  UNL1       -0.2973
      6 N           6.5625   -1.3938    0.0000 N.2     1  UNL1       -0.2517
      7 C           7.8220    0.9997    0.0000 C.3     1  UNL1        0.0343
      8 C           7.5995    0.0248    0.0000 C.3     1  UNL1        0.1246
      9 C           9.3498   -0.3961    0.0000 C.3     1  UNL1       -0.0265
     10 C           8.8125    1.3220    0.0000 C.3     1  UNL1       -0.0240
     11 C           8.3521   -0.6954    0.0000 C.3     1  UNL1       -0.0264
     12 C           9.5815    0.6195    0.0000 C.3     1  UNL1       -0.0447
     13 C           8.9028    1.3137    0.0000 C.3     1  UNL1        0.0021
     14 C           6.6985   -0.4091    0.0000 C.2     1  UNL1        0.0737
     15 C           5.7976    0.0248    0.0000 C.3     1  UNL1        0.1330
     16 C           6.1985    1.7815    0.0000 C.3     1  UNL1        0.0025
     17 C           5.5750    0.9997    0.0000 C.3     1  UNL1       -0.0015
     18 C           9.0238    2.2995    0.0000 C.3     1  UNL1       -0.0516
     19 C           7.3770   -0.9502    0.0000 C.2     1  UNL1        0.3203
     20 C           5.1125   -0.6955    0.0000 C.ar    1  UNL1        0.0183
     21 C           5.5843   -1.5705    0.0000 C.ar    1  UNL1        0.0704
     22 C           9.9759    2.6053    0.0000 C.3     1  UNL1       -0.0650
     23 C           4.0780   -0.6495    0.0000 C.ar    1  UNL1       -0.0117
     24 C           5.0544   -2.4601    0.0000 C.ar    1  UNL1       -0.0325
     25 C           3.5277   -1.5266    0.0000 C.ar    1  UNL1        0.1206
     26 C           7.8875   -2.6053    0.0000 C.3     1  UNL1        0.0817
     27 C           4.0192   -2.4380    0.0000 C.ar    1  UNL1       -0.0179
     28 C           2.0000   -2.3428    0.0000 C.3     1  UNL1        0.0788
     29 H           8.0112    1.8284    0.0000 H       1  UNL1        0.0480
     30 H           9.5647   -1.2184    0.0000 H       1  UNL1        0.0314
     31 H           9.4032    1.5105    0.0000 H       1  UNL1        0.0316
     32 H           7.8531   -1.0634    0.0000 H       1  UNL1        0.0283
     33 H           8.6292   -1.2500    0.0000 H       1  UNL1        0.0283
     34 H          10.1535    0.3801    0.0000 H       1  UNL1        0.0271
     35 H           9.9152    1.1420    0.0000 H       1  UNL1        0.0271
     36 H           9.5207    1.3640    0.0000 H       1  UNL1        0.0429
     37 H           8.9606    1.9310    0.0000 H       1  UNL1        0.0429
     38 H           6.3365    2.3860    0.0000 H       1  UNL1        0.0428
     39 H           5.6399    2.0505    0.0000 H       1  UNL1        0.0428
     40 H           5.1885    1.4844    0.0000 H       1  UNL1        0.0312
     41 H           5.0164    0.7307    0.0000 H       1  UNL1        0.0312
     42 H           8.9396    2.9137    0.0000 H       1  UNL1        0.0266
     43 H           8.4042    2.3232    0.0000 H       1  UNL1        0.0266
     44 H          10.1654    2.0149    0.0000 H       1  UNL1        0.0230
     45 H          10.5662    2.7948    0.0000 H       1  UNL1        0.0230
     46 H           9.7863    3.1956    0.0000 H       1  UNL1        0.0230
     47 H           4.8503    1.0769    0.0000 H       1  UNL1        0.2111
     48 H           3.7901   -0.1004    0.0000 H       1  UNL1        0.0658
     49 H           5.3549   -3.0024    0.0000 H       1  UNL1        0.0640
     50 H           7.2831   -2.4673    0.0000 H       1  UNL1        0.0661
     51 H           7.7496   -3.2097    0.0000 H       1  UNL1        0.0661
     52 H           8.4920   -2.7432    0.0000 H       1  UNL1        0.0661
     53 H           3.6957   -2.9670    0.0000 H       1  UNL1        0.0655
     54 H           1.4736   -2.0153    0.0000 H       1  UNL1        0.0660
     55 H           1.6725   -2.8692    0.0000 H       1  UNL1        0.0660
     56 H           2.5264   -2.6703    0.0000 H       1  UNL1        0.0660
@<TRIPOS>BOND
     1    15     1    1
     2     1    47    1
     3     2    19    1
     4     2    26    1
     5     3    19    2
     6     4    25    1
     7     4    28    1
     8     5     7    1
     9     5    13    1
    10     5    16    1
    11     6    14    2
    12     6    21    1
    13     7     8    1
    14     7    10    1
    15     7    29    1
    16     8    11    1
    17     8    14    1
    18     8    19    1
    19     9    11    1
    20     9    12    1
    21     9    13    1
    22     9    30    1
    23    10    12    1
    24    10    18    1
    25    10    31    1
    26    11    32    1
    27    11    33    1
    28    12    34    1
    29    12    35    1
    30    13    36    1
    31    13    37    1
    32    14    15    1
    33    15    17    1
    34    15    20    1
    35    16    17    1
    36    16    38    1
    37    16    39    1
    38    17    40    1
    39    17    41    1
    40    18    22    1
    41    18    42    1
    42    18    43    1
    43    20    21   ar
    44    20    23   ar
    45    21    24   ar
    46    22    44    1
    47    22    45    1
    48    22    46    1
    49    23    25   ar
    50    23    48    1
    51    24    27   ar
    52    24    49    1
    53    25    27   ar
    54    26    50    1
    55    26    51    1
    56    26    52    1
    57    27    53    1
    58    28    54    1
    59    28    55    1
    60    28    56    1
