@<TRIPOS>MOLECULE
IMPHY013636
 70 69 0 0 0
SMALL
GASTEIGER

@<TRIPOS>ATOM
      1 O           9.7942   -1.2500    0.0000 O.2     1  UNL1       -0.2974
      2 O          21.9186   -0.2500    0.0000 O.3     1  UNL1       -0.4806
      3 O          21.0526    1.2500    0.0000 O.2     1  UNL1       -0.2510
      4 C          14.1244    0.2500    0.0000 C.3     1  UNL1       -0.0531
      5 C          14.9904   -0.2500    0.0000 C.3     1  UNL1       -0.0531
      6 C          13.2583   -0.2500    0.0000 C.3     1  UNL1       -0.0530
      7 C          15.8564    0.2500    0.0000 C.3     1  UNL1       -0.0531
      8 C          12.3923    0.2500    0.0000 C.3     1  UNL1       -0.0527
      9 C          16.7224   -0.2500    0.0000 C.3     1  UNL1       -0.0531
     10 C          11.5263   -0.2500    0.0000 C.3     1  UNL1       -0.0464
     11 C          17.5885    0.2500    0.0000 C.3     1  UNL1       -0.0530
     12 C           7.1962    0.2500    0.0000 C.3     1  UNL1       -0.0527
     13 C           6.3301   -0.2500    0.0000 C.3     1  UNL1       -0.0530
     14 C           8.0622   -0.2500    0.0000 C.3     1  UNL1       -0.0464
     15 C          10.6603    0.2500    0.0000 C.3     1  UNL1        0.0058
     16 C           5.4641    0.2500    0.0000 C.3     1  UNL1       -0.0531
     17 C           8.9282    0.2500    0.0000 C.3     1  UNL1        0.0058
     18 C          18.4545   -0.2500    0.0000 C.3     1  UNL1       -0.0526
     19 C           4.5981   -0.2500    0.0000 C.3     1  UNL1       -0.0531
     20 C           9.7942   -0.2500    0.0000 C.2     1  UNL1        0.1334
     21 C           3.7320    0.2500    0.0000 C.3     1  UNL1       -0.0533
     22 C          19.3205    0.2500    0.0000 C.3     1  UNL1       -0.0430
     23 C           2.8660   -0.2500    0.0000 C.3     1  UNL1       -0.0559
     24 C          20.1865   -0.2500    0.0000 C.3     1  UNL1        0.0448
     25 C           2.0000    0.2500    0.0000 C.3     1  UNL1       -0.0653
     26 C          21.0526    0.2500    0.0000 C.2     1  UNL1        0.3047
     27 H          14.5229    0.7249    0.0000 H       1  UNL1        0.0265
     28 H          13.7258    0.7249    0.0000 H       1  UNL1        0.0265
     29 H          14.5919   -0.7249    0.0000 H       1  UNL1        0.0265
     30 H          15.3889   -0.7249    0.0000 H       1  UNL1        0.0265
     31 H          12.8598   -0.7249    0.0000 H       1  UNL1        0.0265
     32 H          13.6569   -0.7249    0.0000 H       1  UNL1        0.0265
     33 H          16.2549    0.7249    0.0000 H       1  UNL1        0.0265
     34 H          15.4579    0.7249    0.0000 H       1  UNL1        0.0265
     35 H          12.7908    0.7249    0.0000 H       1  UNL1        0.0265
     36 H          11.9938    0.7249    0.0000 H       1  UNL1        0.0265
     37 H          16.3239   -0.7249    0.0000 H       1  UNL1        0.0265
     38 H          17.1210   -0.7249    0.0000 H       1  UNL1        0.0265
     39 H          11.1278   -0.7249    0.0000 H       1  UNL1        0.0269
     40 H          11.9248   -0.7249    0.0000 H       1  UNL1        0.0269
     41 H          17.9870    0.7249    0.0000 H       1  UNL1        0.0265
     42 H          17.1899    0.7249    0.0000 H       1  UNL1        0.0265
     43 H           7.5947    0.7249    0.0000 H       1  UNL1        0.0265
     44 H           6.7976    0.7249    0.0000 H       1  UNL1        0.0265
     45 H           5.9316   -0.7249    0.0000 H       1  UNL1        0.0265
     46 H           6.7287   -0.7249    0.0000 H       1  UNL1        0.0265
     47 H           7.6636   -0.7249    0.0000 H       1  UNL1        0.0269
     48 H           8.4607   -0.7249    0.0000 H       1  UNL1        0.0269
     49 H          11.0588    0.7249    0.0000 H       1  UNL1        0.0342
     50 H          10.2617    0.7249    0.0000 H       1  UNL1        0.0342
     51 H           5.8626    0.7249    0.0000 H       1  UNL1        0.0265
     52 H           5.0656    0.7249    0.0000 H       1  UNL1        0.0265
     53 H           9.3267    0.7249    0.0000 H       1  UNL1        0.0342
     54 H           8.5297    0.7249    0.0000 H       1  UNL1        0.0342
     55 H          18.0560   -0.7249    0.0000 H       1  UNL1        0.0265
     56 H          18.8530   -0.7249    0.0000 H       1  UNL1        0.0265
     57 H           4.1996   -0.7249    0.0000 H       1  UNL1        0.0265
     58 H           4.9966   -0.7249    0.0000 H       1  UNL1        0.0265
     59 H           4.1306    0.7249    0.0000 H       1  UNL1        0.0265
     60 H           3.3335    0.7249    0.0000 H       1  UNL1        0.0265
     61 H          19.7190    0.7249    0.0000 H       1  UNL1        0.0270
     62 H          18.9220    0.7249    0.0000 H       1  UNL1        0.0270
     63 H           2.4675   -0.7249    0.0000 H       1  UNL1        0.0263
     64 H           3.2646   -0.7249    0.0000 H       1  UNL1        0.0263
     65 H          19.7880   -0.7249    0.0000 H       1  UNL1        0.0377
     66 H          20.5851   -0.7249    0.0000 H       1  UNL1        0.0377
     67 H           2.3100    0.7869    0.0000 H       1  UNL1        0.0230
     68 H           1.4631    0.5600    0.0000 H       1  UNL1        0.0230
     69 H           1.6900   -0.2869    0.0000 H       1  UNL1        0.0230
     70 H          22.4555    0.0600    0.0000 H       1  UNL1        0.2951
@<TRIPOS>BOND
     1     1    20    2
     2     2    26    1
     3     2    70    1
     4     3    26    2
     5     4     5    1
     6     4     6    1
     7     4    27    1
     8     4    28    1
     9     5     7    1
    10     5    29    1
    11     5    30    1
    12     6     8    1
    13     6    31    1
    14     6    32    1
    15     7     9    1
    16     7    33    1
    17     7    34    1
    18     8    10    1
    19     8    35    1
    20     8    36    1
    21     9    11    1
    22     9    37    1
    23     9    38    1
    24    10    15    1
    25    10    39    1
    26    10    40    1
    27    11    18    1
    28    11    41    1
    29    11    42    1
    30    12    13    1
    31    12    14    1
    32    12    43    1
    33    12    44    1
    34    13    16    1
    35    13    45    1
    36    13    46    1
    37    14    17    1
    38    14    47    1
    39    14    48    1
    40    15    20    1
    41    15    49    1
    42    15    50    1
    43    16    19    1
    44    16    51    1
    45    16    52    1
    46    17    20    1
    47    17    53    1
    48    17    54    1
    49    18    22    1
    50    18    55    1
    51    18    56    1
    52    19    21    1
    53    19    57    1
    54    19    58    1
    55    21    23    1
    56    21    59    1
    57    21    60    1
    58    22    24    1
    59    22    61    1
    60    22    62    1
    61    23    25    1
    62    23    63    1
    63    23    64    1
    64    24    26    1
    65    24    65    1
    66    24    66    1
    67    25    67    1
    68    25    68    1
    69    25    69    1
