@<TRIPOS>MOLECULE
IMPHY000540
 20 22 0 0 0
SMALL
GASTEIGER

@<TRIPOS>ATOM
      1 C           1.7349    5.4778    0.0000 C.ar    1  UNL1        0.0152
      2 C           2.6841    5.1707    0.0000 C.ar    1  UNL1       -0.0011
      3 C           1.7349    6.4768    0.0000 C.ar    1  UNL1        0.0810
      4 C           0.8654    4.9753    0.0000 C.ar    1  UNL1        0.0012
      5 C           3.2703    5.9763    0.0000 C.ar    1  UNL1        0.0946
      6 C           2.9931    4.2195    0.0000 C.3     1  UNL1        0.0396
      7 N           2.6841    6.7839    0.0000 N.ar    1  UNL1       -0.2442
      8 C           0.8694    6.9793    0.0000 C.ar    1  UNL1        0.0191
      9 C           0.0000    5.4738    0.0000 C.ar    1  UNL1        0.0001
     10 C           3.9703    4.0121    0.0000 C.3     1  UNL1        0.1143
     11 C           0.0000    6.4748    0.0000 C.ar    1  UNL1        0.0015
     12 C           4.2793    3.0589    0.0000 C.2     1  UNL1        0.3172
     13 O           5.2584    2.8516    0.0000 O.3     1  UNL1       -0.4523
     14 O           3.6093    2.3151    0.0000 O.2     1  UNL1       -0.2501
     15 C           5.5655    1.9004    0.0000 C.3     1  UNL1        0.1688
     16 C           6.5446    1.6930    0.0000 C.3     1  UNL1        0.0436
     17 C           4.8975    1.1566    0.0000 C.3     1  UNL1        0.0436
     18 C           6.8537    0.7418    0.0000 C.3     1  UNL1        0.0037
     19 C           5.2066    0.2054    0.0000 C.3     1  UNL1        0.0037
     20 C           6.1837    0.0000    0.0000 C.3     1  UNL1        0.0002
@<TRIPOS>BOND
     1     1     2   ar
     2     1     3   ar
     3     1     4   ar
     4     2     5   ar
     5     2     6    1
     6     3     7   ar
     7     3     8   ar
     8     4     9   ar
     9     5     7   ar
    10     6    10    1
    11     8    11   ar
    12     9    11   ar
    13    10    12    1
    14    12    13    1
    15    12    14    2
    16    13    15    1
    17    15    16    1
    18    15    17    1
    19    16    18    1
    20    17    19    1
    21    18    20    1
    22    19    20    1
