@<TRIPOS>MOLECULE
IMPHY003507
 75 82 0 0 0
SMALL
GASTEIGER

@<TRIPOS>ATOM
      1 O           6.6327    3.4088    0.0000 O.3     1  UNL1       -0.3873
      2 O           7.4622   -0.3362    0.0000 O.3     1  UNL1       -0.3840
      3 O           4.6501   -1.8252    0.0000 O.3     1  UNL1       -0.3363
      4 O           9.3290    0.7036    0.0000 O.2     1  UNL1       -0.2939
      5 O           2.9180   -0.8252    0.0000 O.3     1  UNL1       -0.3365
      6 O           4.7996   -2.5274    0.0000 O.3     1  UNL1       -0.3160
      7 O          11.8978    3.0633    0.0000 O.3     1  UNL1       -0.4571
      8 O           2.0080   -2.3320    0.0000 O.3     1  UNL1       -0.3465
      9 O           4.5067   -4.1236    0.0000 O.3     1  UNL1       -0.3451
     10 O          12.3620    1.3428    0.0000 O.2     1  UNL1       -0.2456
     11 C           7.4987    2.9088    0.0000 C.3     1  UNL1        0.0819
     12 C           6.5244    2.3362    0.0000 C.3     1  UNL1       -0.0045
     13 C           8.4775    2.3437    0.0000 C.3     1  UNL1        0.0642
     14 C           6.5160    1.2512    0.0000 C.3     1  UNL1        0.0066
     15 C           5.5681    0.7233    0.0000 C.3     1  UNL1       -0.0026
     16 C           9.3104    3.0976    0.0000 C.3     1  UNL1       -0.0013
     17 C           7.7352    4.0071    0.0000 C.3     1  UNL1       -0.0222
     18 C           7.4814    0.6637    0.0000 C.3     1  UNL1        0.1176
     19 C           5.5847    2.8787    0.0000 C.3     1  UNL1       -0.0435
     20 C           8.8526    4.1236    0.0000 C.3     1  UNL1       -0.0428
     21 C           8.4688    1.2136    0.0000 C.2     1  UNL1        0.1709
     22 C           4.6660    1.2441    0.0000 C.2     1  UNL1       -0.0646
     23 C           5.5601   -0.3183    0.0000 C.3     1  UNL1       -0.0143
     24 C           4.6493    2.3290    0.0000 C.3     1  UNL1       -0.0308
     25 C           9.3435    1.8437    0.0000 C.3     1  UNL1       -0.0495
     26 C           4.6501   -0.8252    0.0000 C.3     1  UNL1        0.0927
     27 C           6.4341    0.2233    0.0000 C.3     1  UNL1       -0.0554
     28 C          10.2889    2.8914    0.0000 C.2     1  UNL1       -0.0218
     29 C           3.7841   -0.3252    0.0000 C.3     1  UNL1        0.1065
     30 C           3.7680    0.7163    0.0000 C.2     1  UNL1       -0.0533
     31 C           3.7841   -2.3252    0.0000 C.3     1  UNL1        0.2515
     32 C          11.0309    3.5618    0.0000 C.3     1  UNL1        0.1147
     33 C           2.9180   -1.8252    0.0000 C.3     1  UNL1        0.2173
     34 C          10.6973    1.9786    0.0000 C.2     1  UNL1        0.0252
     35 C           3.8001   -3.3667    0.0000 C.3     1  UNL1        0.1223
     36 C           2.9021   -3.8944    0.0000 C.3     1  UNL1        0.0024
     37 C          11.6916    2.0848    0.0000 C.2     1  UNL1        0.3323
     38 C           2.0000   -3.3736    0.0000 C.3     1  UNL1        0.0534
     39 C           5.1842   -3.6213    0.0000 C.3     1  UNL1        0.1523
     40 H           6.5211    3.1862    0.0000 H       1  UNL1        0.0333
     41 H           6.4996    0.4014    0.0000 H       1  UNL1        0.0342
     42 H           9.8445    3.7589    0.0000 H       1  UNL1        0.0357
     43 H           7.7361    4.6271    0.0000 H       1  UNL1        0.0293
     44 H           7.1187    4.0732    0.0000 H       1  UNL1        0.0293
     45 H           8.2101    0.2260    0.0000 H       1  UNL1        0.0676
     46 H           5.9820    3.3546    0.0000 H       1  UNL1        0.0272
     47 H           5.1838    3.3516    0.0000 H       1  UNL1        0.0272
     48 H           9.4422    4.3153    0.0000 H       1  UNL1        0.0272
     49 H           8.7238    4.7301    0.0000 H       1  UNL1        0.0272
     50 H           5.7646   -0.9036    0.0000 H       1  UNL1        0.0300
     51 H           6.1717   -0.2169    0.0000 H       1  UNL1        0.0300
     52 H           4.4313    2.9094    0.0000 H       1  UNL1        0.0310
     53 H           4.0402    2.2135    0.0000 H       1  UNL1        0.0310
     54 H           9.0335    1.3068    0.0000 H       1  UNL1        0.0240
     55 H           9.8804    1.5337    0.0000 H       1  UNL1        0.0240
     56 H           9.6535    2.3806    0.0000 H       1  UNL1        0.0240
     57 H           5.3829   -1.2558    0.0000 H       1  UNL1        0.0626
     58 H           6.1241   -0.3137    0.0000 H       1  UNL1        0.0238
     59 H           6.9711   -0.0867    0.0000 H       1  UNL1        0.0238
     60 H           6.7441    0.7602    0.0000 H       1  UNL1        0.0238
     61 H           6.6327    4.0288    0.0000 H       1  UNL1        0.2102
     62 H           3.0447    0.0941    0.0000 H       1  UNL1        0.0667
     63 H           3.2275    1.0201    0.0000 H       1  UNL1        0.0598
     64 H           7.9930   -0.6564    0.0000 H       1  UNL1        0.2104
     65 H          11.3945    4.0640    0.0000 H       1  UNL1        0.0746
     66 H          10.5695    3.9759    0.0000 H       1  UNL1        0.0746
     67 H           2.1852   -1.3945    0.0000 H       1  UNL1        0.0967
     68 H          10.3882    1.4411    0.0000 H       1  UNL1        0.0689
     69 H           3.6780   -4.2078    0.0000 H       1  UNL1        0.0653
     70 H           2.5048   -4.3704    0.0000 H       1  UNL1        0.0314
     71 H           3.3030   -4.3673    0.0000 H       1  UNL1        0.0314
     72 H           1.3900   -3.2628    0.0000 H       1  UNL1        0.0562
     73 H           1.7864   -3.9557    0.0000 H       1  UNL1        0.0562
     74 H           5.5019   -4.1537    0.0000 H       1  UNL1        0.0872
     75 H           5.7457   -3.3583    0.0000 H       1  UNL1        0.0872
@<TRIPOS>BOND
     1     1    11    1
     2     1    61    1
     3     2    18    1
     4     2    64    1
     5     3    26    1
     6     3    31    1
     7     4    21    2
     8     5    29    1
     9     5    33    1
    10     6    31    1
    11     6    39    1
    12     7    32    1
    13     7    37    1
    14     8    33    1
    15     8    38    1
    16     9    35    1
    17     9    39    1
    18    10    37    2
    19    11    12    1
    20    11    13    1
    21    11    17    1
    22    12    14    1
    23    12    19    1
    24    12    40    1
    25    13    16    1
    26    13    21    1
    27    13    25    1
    28    14    15    1
    29    14    18    1
    30    14    41    1
    31    15    22    1
    32    15    23    1
    33    15    27    1
    34    16    20    1
    35    16    28    1
    36    16    42    1
    37    17    20    1
    38    17    43    1
    39    17    44    1
    40    18    21    1
    41    18    45    1
    42    19    24    1
    43    19    46    1
    44    19    47    1
    45    20    48    1
    46    20    49    1
    47    22    24    1
    48    22    30    2
    49    23    26    1
    50    23    50    1
    51    23    51    1
    52    24    52    1
    53    24    53    1
    54    25    54    1
    55    25    55    1
    56    25    56    1
    57    26    29    1
    58    26    57    1
    59    27    58    1
    60    27    59    1
    61    27    60    1
    62    28    32    1
    63    28    34    2
    64    29    30    1
    65    29    62    1
    66    30    63    1
    67    31    33    1
    68    31    35    1
    69    32    65    1
    70    32    66    1
    71    33    67    1
    72    34    37    1
    73    34    68    1
    74    35    36    1
    75    35    69    1
    76    36    38    1
    77    36    70    1
    78    36    71    1
    79    38    72    1
    80    38    73    1
    81    39    74    1
    82    39    75    1
