@<TRIPOS>MOLECULE
IMPHY005056
 33 34 0 0 0
SMALL
GASTEIGER

@<TRIPOS>ATOM
      1 O           2.8660   -2.9050    0.0000 O.3     1  UNL1       -0.4914
      2 O           4.5981   -3.9050    0.0000 O.3     1  UNL1       -0.5033
      3 O           3.7320    3.5950    0.0000 O.3     1  UNL1       -0.5066
      4 O           7.1962    3.5950    0.0000 O.3     1  UNL1       -0.5066
      5 C           4.5981   -0.9050    0.0000 C.ar    1  UNL1       -0.0213
      6 C           5.4641    1.5950    0.0000 C.ar    1  UNL1       -0.0181
      7 C           4.5981    0.0950    0.0000 C.2     1  UNL1       -0.0539
      8 C           3.7320   -1.4050    0.0000 C.ar    1  UNL1       -0.0092
      9 C           5.4641    0.5950    0.0000 C.2     1  UNL1       -0.0538
     10 C           3.7320   -2.4050    0.0000 C.ar    1  UNL1        0.1618
     11 C           5.4641   -1.4050    0.0000 C.ar    1  UNL1       -0.0509
     12 C           4.5981   -2.9050    0.0000 C.ar    1  UNL1        0.1585
     13 C           6.3301    2.0950    0.0000 C.ar    1  UNL1       -0.0128
     14 C           4.5981    2.0950    0.0000 C.ar    1  UNL1       -0.0128
     15 C           5.4641   -2.4050    0.0000 C.ar    1  UNL1       -0.0160
     16 C           4.5981    3.0950    0.0000 C.ar    1  UNL1        0.1209
     17 C           6.3301    3.0950    0.0000 C.ar    1  UNL1        0.1209
     18 C           5.4641    3.5950    0.0000 C.ar    1  UNL1        0.0213
     19 C           2.0000   -2.4050    0.0000 C.3     1  UNL1        0.0790
     20 H           4.0611    0.4050    0.0000 H       1  UNL1        0.0624
     21 H           3.1951   -1.0950    0.0000 H       1  UNL1        0.0661
     22 H           6.0010    0.2850    0.0000 H       1  UNL1        0.0624
     23 H           6.0010   -1.0950    0.0000 H       1  UNL1        0.0625
     24 H           6.8671    1.7850    0.0000 H       1  UNL1        0.0660
     25 H           4.0611    1.7850    0.0000 H       1  UNL1        0.0660
     26 H           6.0010   -2.7150    0.0000 H       1  UNL1        0.0655
     27 H           5.4641    4.2150    0.0000 H       1  UNL1        0.0691
     28 H           5.1350   -4.2150    0.0000 H       1  UNL1        0.2923
     29 H           2.3100   -1.8681    0.0000 H       1  UNL1        0.0660
     30 H           1.4631   -2.0950    0.0000 H       1  UNL1        0.0660
     31 H           1.6900   -2.9419    0.0000 H       1  UNL1        0.0660
     32 H           3.7320    4.2150    0.0000 H       1  UNL1        0.2921
     33 H           7.1962    4.2150    0.0000 H       1  UNL1        0.2921
@<TRIPOS>BOND
     1     1    10    1
     2     1    19    1
     3     2    12    1
     4     2    28    1
     5     3    16    1
     6     3    32    1
     7     4    17    1
     8     4    33    1
     9     5     7    1
    10     5     8   ar
    11     5    11   ar
    12     6     9    1
    13     6    13   ar
    14     6    14   ar
    15     7     9    2
    16     7    20    1
    17     8    10   ar
    18     8    21    1
    19     9    22    1
    20    10    12   ar
    21    11    15   ar
    22    11    23    1
    23    12    15   ar
    24    13    17   ar
    25    13    24    1
    26    14    16   ar
    27    14    25    1
    28    15    26    1
    29    16    18   ar
    30    17    18   ar
    31    18    27    1
    32    19    29    1
    33    19    30    1
    34    19    31    1
