@<TRIPOS>MOLECULE
IMPHY012404
 47 49 0 0 0
SMALL
GASTEIGER

@<TRIPOS>ATOM
      1 O           7.2722   -2.2527    0.0000 O.3     1  UNL1       -0.3807
      2 O           4.6917   -2.2945    0.0000 O.2     1  UNL1       -0.2893
      3 O           7.3757    1.0139    0.0000 O.2     1  UNL1       -0.2873
      4 C           4.3764   -0.1836    0.0000 C.3     1  UNL1        0.0155
      5 C           4.1538    0.7914    0.0000 C.3     1  UNL1       -0.0051
      6 C           3.1633    1.1137    0.0000 C.3     1  UNL1       -0.0130
      7 C           5.2773   -0.6175    0.0000 C.2     1  UNL1        0.0125
      8 C           2.3943    0.4111    0.0000 C.3     1  UNL1       -0.0423
      9 C           3.6238   -0.9038    0.0000 C.2     1  UNL1       -0.0685
     10 C           2.6261   -0.6044    0.0000 C.3     1  UNL1       -0.0308
     11 C           6.1783   -0.1836    0.0000 C.2     1  UNL1        0.0098
     12 C           6.3916   -1.7788    0.0000 C.3     1  UNL1        0.1291
     13 C           6.8634   -0.9039    0.0000 C.3     1  UNL1        0.0123
     14 C           4.7773    1.5732    0.0000 C.2     1  UNL1       -0.0729
     15 C           5.4133   -1.6022    0.0000 C.2     1  UNL1        0.1915
     16 C           2.9521    2.0911    0.0000 C.2     1  UNL1       -0.0760
     17 C           5.7773    1.5732    0.0000 C.2     1  UNL1       -0.0071
     18 C           6.4008    0.7914    0.0000 C.2     1  UNL1        0.1852
     19 C           6.2130   -2.7628    0.0000 C.3     1  UNL1       -0.0285
     20 C           3.8576   -1.8760    0.0000 C.2     1  UNL1       -0.0989
     21 C           2.0000    2.3969    0.0000 C.3     1  UNL1       -0.0438
     22 C           6.2112    2.4742    0.0000 C.3     1  UNL1       -0.0364
     23 C           3.6930    2.7628    0.0000 C.2     1  UNL1       -0.0994
     24 H           4.4735   -0.7959    0.0000 H       1  UNL1        0.0401
     25 H           3.9096    1.6055    0.0000 H       1  UNL1        0.0358
     26 H           2.5727    1.3021    0.0000 H       1  UNL1        0.0351
     27 H           2.0606    0.9336    0.0000 H       1  UNL1        0.0274
     28 H           1.8224    0.1717    0.0000 H       1  UNL1        0.0274
     29 H           2.0070   -0.6369    0.0000 H       1  UNL1        0.0310
     30 H           2.5522   -1.2200    0.0000 H       1  UNL1        0.0310
     31 H           7.3752   -1.2539    0.0000 H       1  UNL1        0.0347
     32 H           7.2652   -0.4317    0.0000 H       1  UNL1        0.0347
     33 H           4.5083    2.1318    0.0000 H       1  UNL1        0.0579
     34 H           5.6030   -2.6521    0.0000 H       1  UNL1        0.0262
     35 H           6.1023   -3.3728    0.0000 H       1  UNL1        0.0262
     36 H           6.8231   -2.8735    0.0000 H       1  UNL1        0.0262
     37 H           3.4080   -2.3030    0.0000 H       1  UNL1        0.0535
     38 H           4.4521   -2.0519    0.0000 H       1  UNL1        0.0535
     39 H           2.1896    2.9872    0.0000 H       1  UNL1        0.0274
     40 H           1.4097    2.5865    0.0000 H       1  UNL1        0.0274
     41 H           1.8104    1.8066    0.0000 H       1  UNL1        0.0274
     42 H           6.7698    2.2052    0.0000 H       1  UNL1        0.0279
     43 H           6.4802    3.0328    0.0000 H       1  UNL1        0.0279
     44 H           5.6526    2.7432    0.0000 H       1  UNL1        0.0279
     45 H           7.7996   -1.9268    0.0000 H       1  UNL1        0.2108
     46 H           4.2833    2.5732    0.0000 H       1  UNL1        0.0534
     47 H           3.5620    3.3688    0.0000 H       1  UNL1        0.0534
@<TRIPOS>BOND
     1    12     1    1
     2     1    45    1
     3     2    15    2
     4     3    18    2
     5     4     5    1
     6     4     7    1
     7     4     9    1
     8     4    24    1
     9     5     6    1
    10     5    14    1
    11     5    25    1
    12     6     8    1
    13     6    16    1
    14     6    26    1
    15     7    11    2
    16     7    15    1
    17     8    10    1
    18     8    27    1
    19     8    28    1
    20     9    10    1
    21     9    20    2
    22    10    29    1
    23    10    30    1
    24    11    13    1
    25    11    18    1
    26    12    13    1
    27    12    15    1
    28    12    19    1
    29    13    31    1
    30    13    32    1
    31    14    17    2
    32    14    33    1
    33    16    21    1
    34    16    23    2
    35    17    18    1
    36    17    22    1
    37    19    34    1
    38    19    35    1
    39    19    36    1
    40    20    37    1
    41    20    38    1
    42    21    39    1
    43    21    40    1
    44    21    41    1
    45    22    42    1
    46    22    43    1
    47    22    44    1
    48    23    46    1
    49    23    47    1
