@<TRIPOS>MOLECULE
IMPHY017623
 44 43 0 0 0
SMALL
GASTEIGER

@<TRIPOS>ATOM
      1 O           3.7320    0.0000    0.0000 O.3     1  UNL1       -0.4638
      2 O           6.3301    0.5000    0.0000 O.3     1  UNL1       -0.3875
      3 O           4.5981   -1.5000    0.0000 O.2     1  UNL1       -0.2505
      4 C           4.5981    1.5000    0.0000 C.3     1  UNL1        0.0165
      5 C           5.4641    2.0000    0.0000 C.3     1  UNL1       -0.0134
      6 C           4.5981    0.5000    0.0000 C.3     1  UNL1        0.0990
      7 C           6.3301    1.5000    0.0000 C.3     1  UNL1        0.0764
      8 C           3.7320    2.0000    0.0000 C.2     1  UNL1       -0.0733
      9 C           2.8660   -1.5000    0.0000 C.3     1  UNL1        0.0534
     10 C           7.1962    2.0000    0.0000 C.2     1  UNL1       -0.0516
     11 C           2.8660   -2.5000    0.0000 C.3     1  UNL1       -0.0432
     12 C           3.7320   -1.0000    0.0000 C.2     1  UNL1        0.3099
     13 C           2.8660    1.5000    0.0000 C.3     1  UNL1       -0.0437
     14 C           2.0000   -1.0000    0.0000 C.3     1  UNL1       -0.0523
     15 C           3.7320    3.0000    0.0000 C.2     1  UNL1       -0.0993
     16 C           8.0622    1.5000    0.0000 C.3     1  UNL1       -0.0416
     17 C           2.0000   -3.0000    0.0000 C.3     1  UNL1       -0.0645
     18 C           7.1962    3.0000    0.0000 C.2     1  UNL1       -0.0973
     19 H           4.5981    2.1200    0.0000 H       1  UNL1        0.0379
     20 H           5.8626    2.4750    0.0000 H       1  UNL1        0.0300
     21 H           5.0656    2.4750    0.0000 H       1  UNL1        0.0300
     22 H           4.8101   -0.0826    0.0000 H       1  UNL1        0.0703
     23 H           5.2087    0.6077    0.0000 H       1  UNL1        0.0703
     24 H           6.8671    1.1900    0.0000 H       1  UNL1        0.0640
     25 H           2.8660   -0.8800    0.0000 H       1  UNL1        0.0410
     26 H           3.0781   -3.0826    0.0000 H       1  UNL1        0.0270
     27 H           3.4766   -2.3923    0.0000 H       1  UNL1        0.0270
     28 H           2.5560    2.0369    0.0000 H       1  UNL1        0.0274
     29 H           2.3291    1.1900    0.0000 H       1  UNL1        0.0274
     30 H           3.1760    0.9631    0.0000 H       1  UNL1        0.0274
     31 H           2.3100   -0.4631    0.0000 H       1  UNL1        0.0238
     32 H           1.4631   -0.6900    0.0000 H       1  UNL1        0.0238
     33 H           1.6900   -1.5369    0.0000 H       1  UNL1        0.0238
     34 H           4.2690    3.3100    0.0000 H       1  UNL1        0.0534
     35 H           3.1951    3.3100    0.0000 H       1  UNL1        0.0534
     36 H           6.8671    0.1900    0.0000 H       1  UNL1        0.2102
     37 H           7.7522    0.9631    0.0000 H       1  UNL1        0.0275
     38 H           8.5991    1.1900    0.0000 H       1  UNL1        0.0275
     39 H           8.3722    2.0369    0.0000 H       1  UNL1        0.0275
     40 H           1.6900   -2.4631    0.0000 H       1  UNL1        0.0230
     41 H           1.4631   -3.3100    0.0000 H       1  UNL1        0.0230
     42 H           2.3100   -3.5369    0.0000 H       1  UNL1        0.0230
     43 H           7.7331    3.3100    0.0000 H       1  UNL1        0.0535
     44 H           6.6592    3.3100    0.0000 H       1  UNL1        0.0535
@<TRIPOS>BOND
     1     1     6    1
     2     1    12    1
     3     2     7    1
     4     2    36    1
     5     3    12    2
     6     4     5    1
     7     4     6    1
     8     4     8    1
     9     4    19    1
    10     5     7    1
    11     5    20    1
    12     5    21    1
    13     6    22    1
    14     6    23    1
    15     7    10    1
    16     7    24    1
    17     8    13    1
    18     8    15    2
    19     9    11    1
    20     9    12    1
    21     9    14    1
    22     9    25    1
    23    10    16    1
    24    10    18    2
    25    11    17    1
    26    11    26    1
    27    11    27    1
    28    13    28    1
    29    13    29    1
    30    13    30    1
    31    14    31    1
    32    14    32    1
    33    14    33    1
    34    15    34    1
    35    15    35    1
    36    16    37    1
    37    16    38    1
    38    16    39    1
    39    17    40    1
    40    17    41    1
    41    17    42    1
    42    18    43    1
    43    18    44    1
