@<TRIPOS>MOLECULE
IMPHY017899
 32 32 0 0 0
SMALL
GASTEIGER

@<TRIPOS>ATOM
      1 CL          7.4040    3.6200    0.0000 Cl      1  UNL1       -0.1454
      2 O           0.5369    4.1200    0.0000 O.3     2  UNL2       -0.3856
      3 N           2.2690    5.1200    0.0000 N.pl3   2  UNL2       -0.3263
      4 N           3.1350    6.6200    0.0000 N.ar    2  UNL2       -0.2405
      5 C           1.4030    3.6200    0.0000 C.3     2  UNL2        0.0956
      6 C           2.2690    4.1200    0.0000 C.3     2  UNL2        0.0406
      7 C           1.4030    2.6200    0.0000 C.ar    2  UNL2       -0.0177
      8 C           0.5369    2.1200    0.0000 C.ar    2  UNL2       -0.0561
      9 C           2.2690    2.1200    0.0000 C.ar    2  UNL2       -0.0561
     10 C           3.1350    5.6200    0.0000 C.ar    2  UNL2        0.1187
     11 C           0.5369    1.1200    0.0000 C.ar    2  UNL2       -0.0614
     12 C           2.2690    1.1200    0.0000 C.ar    2  UNL2       -0.0614
     13 C           1.4030    0.6200    0.0000 C.ar    2  UNL2       -0.0617
     14 C           4.0010    5.1200    0.0000 C.ar    2  UNL2       -0.0219
     15 C           4.8671    5.6200    0.0000 C.ar    2  UNL2       -0.0571
     16 C           4.0010    7.1200    0.0000 C.ar    2  UNL2        0.0297
     17 C           4.8671    6.6200    0.0000 C.ar    2  UNL2       -0.0435
     18 H           1.4030    4.2400    0.0000 H       2  UNL2        0.0659
     19 H           2.4810    3.5374    0.0000 H       2  UNL2        0.0490
     20 H           2.8796    4.2277    0.0000 H       2  UNL2        0.0490
     21 H           1.7320    5.4300    0.0000 H       2  UNL2        0.1476
     22 H           0.0000    2.4300    0.0000 H       2  UNL2        0.0621
     23 H           2.8059    2.4300    0.0000 H       2  UNL2        0.0621
     24 H           0.5369    4.7400    0.0000 H       2  UNL2        0.2103
     25 H           0.0000    0.8100    0.0000 H       2  UNL2        0.0618
     26 H           2.8059    0.8100    0.0000 H       2  UNL2        0.0618
     27 H           1.4030    0.0000    0.0000 H       2  UNL2        0.0618
     28 H           4.0010    4.5000    0.0000 H       2  UNL2        0.0652
     29 H           5.4040    5.3100    0.0000 H       2  UNL2        0.0619
     30 H           4.0010    7.7400    0.0000 H       2  UNL2        0.0830
     31 H           5.4040    6.9300    0.0000 H       2  UNL2        0.0633
     32 H           8.4040    3.6200    0.0000 H       1  UNL1        0.1454
@<TRIPOS>BOND
     1     1    32    1
     2     2     5    1
     3     2    24    1
     4     3     6    1
     5     3    10    1
     6     3    21    1
     7     4    10   ar
     8     4    16   ar
     9     5     6    1
    10     5     7    1
    11     5    18    1
    12     6    19    1
    13     6    20    1
    14     7     8   ar
    15     7     9   ar
    16     8    11   ar
    17     8    22    1
    18     9    12   ar
    19     9    23    1
    20    10    14   ar
    21    11    13   ar
    22    11    25    1
    23    12    13   ar
    24    12    26    1
    25    13    27    1
    26    14    15   ar
    27    14    28    1
    28    15    17   ar
    29    15    29    1
    30    16    17   ar
    31    16    30    1
    32    17    31    1
