@<TRIPOS>MOLECULE
IMPHY010746
 19 21 0 0 0
SMALL
GASTEIGER

@<TRIPOS>ATOM
      1 O           6.2143   -0.4317    0.0000 O.3     1  UNL1       -0.4599
      2 O           2.0000    2.2076    0.0000 O.2     1  UNL1       -0.2749
      3 O           6.1763   -2.2076    0.0000 O.2     1  UNL1       -0.2501
      4 N           3.5047    1.2635    0.0000 N.am    1  UNL1       -0.2862
      5 C           4.6282   -0.1453    0.0000 C.3     1  UNL1        0.0333
      6 C           3.7272    0.2886    0.0000 C.3     1  UNL1        0.0419
      7 C           5.5291    0.2886    0.0000 C.3     1  UNL1        0.1162
      8 C           4.7642   -1.1300    0.0000 C.3     1  UNL1        0.0995
      9 C           2.8725   -0.2190    0.0000 C.3     1  UNL1        0.0236
     10 C           5.7517    1.2635    0.0000 C.3     1  UNL1        0.0376
     11 C           4.1282    2.0454    0.0000 C.3     1  UNL1        0.0931
     12 C           5.1282    2.0454    0.0000 C.3     1  UNL1        0.0247
     13 C           2.1245    0.4357    0.0000 C.3     1  UNL1        0.0866
     14 C           2.5144    1.3501    0.0000 C.2     1  UNL1        0.2253
     15 C           5.7424   -1.3067    0.0000 C.2     1  UNL1        0.3158
     16 C           4.0426   -1.8223    0.0000 C.3     1  UNL1        0.0115
     17 H           3.9816   -0.6163    0.0000 H       1  UNL1        0.0366
     18 H           3.7621   -0.5106    0.0000 H       1  UNL1        0.0511
     19 H           6.3006    0.5004    0.0000 H       1  UNL1        0.0744
@<TRIPOS>BOND
     1     1     7    1
     2     1    15    1
     3     2    14    2
     4     3    15    2
     5     4     6    1
     6     4    11    1
     7     4    14   am
     8     5     6    1
     9     5     7    1
    10     5     8    1
    11     5    17    1
    12     6     9    1
    13     6    18    1
    14     7    10    1
    15     7    19    1
    16     8    15    1
    17     8    16    1
    18     9    13    1
    19    10    12    1
    20    11    12    1
    21    13    14    1
