@<TRIPOS>MOLECULE
IMPHY002811
 34 38 0 0 0
SMALL
GASTEIGER

@<TRIPOS>ATOM
      1 O           6.2719   -1.0387    0.0000 O.2     1  UNL1       -0.4537
      2 O           6.4811    1.9331    0.0000 O.2     1  UNL1       -0.4214
      3 O           2.2123   -1.0554    0.0000 O.3     1  UNL1       -0.4526
      4 O           2.8914   -2.5773    0.0000 O.3     1  UNL1       -0.4525
      5 O          10.0112   -0.0910    0.0000 O.3     1  UNL1       -0.4914
      6 O           4.7490    1.9331    0.0000 O.2     1  UNL1       -0.2444
      7 O          10.0112    1.9573    0.0000 O.3     1  UNL1       -0.5032
      8 C           4.8780   -0.2340    0.0000 C.ar    1  UNL1        0.0385
      9 C           5.6151    0.4331    0.0000 C.ar    1  UNL1        0.1129
     10 C           6.4811   -0.0669    0.0000 C.ar    1  UNL1        0.1539
     11 C           5.2832   -1.1417    0.0000 C.ar    1  UNL1        0.1402
     12 C           7.3471    0.4331    0.0000 C.ar    1  UNL1        0.0641
     13 C           3.8499   -0.1107    0.0000 C.ar    1  UNL1       -0.0046
     14 C           3.2356   -0.9443    0.0000 C.ar    1  UNL1        0.1670
     15 C           7.3471    1.4331    0.0000 C.ar    1  UNL1        0.1463
     16 C           4.6882   -1.9892    0.0000 C.ar    1  UNL1        0.0268
     17 C           3.6576   -1.8898    0.0000 C.ar    1  UNL1        0.1698
     18 C           5.6151    1.4331    0.0000 C.ar    1  UNL1        0.3488
     19 C           8.2410   -0.1015    0.0000 C.ar    1  UNL1       -0.0021
     20 C           8.2410    1.9678    0.0000 C.ar    1  UNL1        0.0266
     21 C           9.1471    0.4123    0.0000 C.ar    1  UNL1        0.1622
     22 C           2.0000   -2.0626    0.0000 C.3     1  UNL1        0.2332
     23 C           9.1471    1.4540    0.0000 C.ar    1  UNL1        0.1620
     24 C          10.0074   -1.0910    0.0000 C.3     1  UNL1        0.0790
     25 H           3.6038    0.4583    0.0000 H       1  UNL1        0.0663
     26 H           4.9474   -2.5525    0.0000 H       1  UNL1        0.0692
     27 H           8.2339   -0.7215    0.0000 H       1  UNL1        0.0663
     28 H           8.2339    2.5878    0.0000 H       1  UNL1        0.0692
     29 H           1.4101   -1.8717    0.0000 H       1  UNL1        0.1166
     30 H           1.7482   -2.6292    0.0000 H       1  UNL1        0.1166
     31 H          10.0088    2.5773    0.0000 H       1  UNL1        0.2923
     32 H           9.3874   -1.0886    0.0000 H       1  UNL1        0.0660
     33 H          10.0050   -1.7110    0.0000 H       1  UNL1        0.0660
     34 H          10.6273   -1.0934    0.0000 H       1  UNL1        0.0660
@<TRIPOS>BOND
     1     1    10   ar
     2     1    11   ar
     3     2    15   ar
     4     2    18   ar
     5     3    14    1
     6     3    22    1
     7     4    17    1
     8     4    22    1
     9     5    21    1
    10     5    24    1
    11     6    18    2
    12     7    23    1
    13     7    31    1
    14     8     9   ar
    15     8    11   ar
    16     8    13   ar
    17     9    10   ar
    18     9    18   ar
    19    10    12   ar
    20    11    16   ar
    21    12    15   ar
    22    12    19   ar
    23    13    14   ar
    24    13    25    1
    25    14    17   ar
    26    15    20   ar
    27    16    17   ar
    28    16    26    1
    29    19    21   ar
    30    19    27    1
    31    20    23   ar
    32    20    28    1
    33    21    23   ar
    34    22    29    1
    35    22    30    1
    36    24    32    1
    37    24    33    1
    38    24    34    1
