@<TRIPOS>MOLECULE
IMPHY000806
 28 29 0 0 0
SMALL
GASTEIGER

@<TRIPOS>ATOM
      1 N           3.7320   -0.1550    0.0000 N.ar    1  UNL1       -0.3110
      2 N           5.5443    0.0403    0.0000 N.ar    1  UNL1       -0.2160
      3 N           2.8660    1.3450    0.0000 N.ar    1  UNL1       -0.2206
      4 N           5.5443    1.6497    0.0000 N.ar    1  UNL1       -0.2289
      5 N           3.7320    2.8450    0.0000 N.pl3   1  UNL1       -0.3413
      6 C           3.7320   -1.1550    0.0000 C.3     1  UNL1        0.0444
      7 C           4.5981    0.3450    0.0000 C.ar    1  UNL1        0.1656
      8 C           4.5981    1.3450    0.0000 C.ar    1  UNL1        0.1473
      9 C           2.8660   -1.6550    0.0000 C.2     1  UNL1       -0.0657
     10 C           2.8660    0.3450    0.0000 C.ar    1  UNL1        0.0999
     11 C           3.7320    1.8450    0.0000 C.ar    1  UNL1        0.1471
     12 C           2.8660   -2.6550    0.0000 C.2     1  UNL1       -0.0780
     13 C           6.1279    0.8450    0.0000 C.ar    1  UNL1        0.1192
     14 C           2.0000   -3.1550    0.0000 C.3     1  UNL1       -0.0440
     15 C           3.7320   -3.1550    0.0000 C.3     1  UNL1       -0.0440
     16 H           3.9441   -1.7376    0.0000 H       1  UNL1        0.0536
     17 H           4.3426   -1.0473    0.0000 H       1  UNL1        0.0536
     18 H           2.3291   -1.3450    0.0000 H       1  UNL1        0.0589
     19 H           2.3291    0.0350    0.0000 H       1  UNL1        0.1030
     20 H           6.7479    0.8450    0.0000 H       1  UNL1        0.1048
     21 H           1.6900   -2.6181    0.0000 H       1  UNL1        0.0274
     22 H           1.4631   -3.4650    0.0000 H       1  UNL1        0.0274
     23 H           2.3100   -3.6919    0.0000 H       1  UNL1        0.0274
     24 H           3.4220   -3.6919    0.0000 H       1  UNL1        0.0274
     25 H           4.2690   -3.4650    0.0000 H       1  UNL1        0.0274
     26 H           4.0420   -2.6181    0.0000 H       1  UNL1        0.0274
     27 H           3.1951    3.1550    0.0000 H       1  UNL1        0.1438
     28 H           4.2690    3.1550    0.0000 H       1  UNL1        0.1438
@<TRIPOS>BOND
     1     1     6    1
     2     1     7   ar
     3     1    10   ar
     4     2     7   ar
     5     2    13   ar
     6     3    10   ar
     7     3    11   ar
     8     4     8   ar
     9     4    13   ar
    10     5    11    1
    11     5    27    1
    12     5    28    1
    13     6     9    1
    14     6    16    1
    15     6    17    1
    16     7     8    1
    17     8    11   ar
    18     9    12    2
    19     9    18    1
    20    10    19    1
    21    12    14    1
    22    12    15    1
    23    13    20    1
    24    14    21    1
    25    14    22    1
    26    14    23    1
    27    15    24    1
    28    15    25    1
    29    15    26    1
