@<TRIPOS>MOLECULE
IMPHY008739
 52 55 0 0 0
SMALL
GASTEIGER

@<TRIPOS>ATOM
      1 O           4.2690   -1.6796    0.0000 O.3     1  UNL1       -0.3339
      2 O           6.0010   -1.6796    0.0000 O.3     1  UNL1       -0.4569
      3 O           4.2690   -4.6796    0.0000 O.3     1  UNL1       -0.3864
      4 O           2.5369   -3.6796    0.0000 O.3     1  UNL1       -0.3866
      5 O           6.0010   -3.6796    0.0000 O.3     1  UNL1       -0.3829
      6 O           7.7570    1.3829    0.0000 O.2     1  UNL1       -0.4470
      7 O           7.7710   -0.6486    0.0000 O.3     1  UNL1       -0.5009
      8 O           4.2548    1.3996    0.0000 O.3     1  UNL1       -0.5058
      9 O           6.9006    3.8863    0.0000 O.3     1  UNL1       -0.5007
     10 O           5.1647    2.8930    0.0000 O.2     1  UNL1       -0.2830
     11 O          11.2326    4.3696    0.0000 O.3     1  UNL1       -0.5068
     12 C           4.2690   -3.6796    0.0000 C.3     1  UNL1        0.1151
     13 C           3.4030   -3.1796    0.0000 C.3     1  UNL1        0.1096
     14 C           5.1350   -3.1796    0.0000 C.3     1  UNL1        0.1454
     15 C           3.4030   -2.1796    0.0000 C.3     1  UNL1        0.0883
     16 C           5.1350   -2.1796    0.0000 C.3     1  UNL1        0.2309
     17 C           2.5369   -1.6796    0.0000 C.3     1  UNL1       -0.0360
     18 C           6.0010   -0.6796    0.0000 C.ar    1  UNL1        0.1724
     19 C           6.9011   -0.1553    0.0000 C.ar    1  UNL1        0.2027
     20 C           5.1010   -0.1553    0.0000 C.ar    1  UNL1        0.0263
     21 C           6.8891    0.8863    0.0000 C.ar    1  UNL1        0.1879
     22 C           6.0250    1.3896    0.0000 C.ar    1  UNL1        0.1128
     23 C           5.1130    0.8863    0.0000 C.ar    1  UNL1        0.1350
     24 C           6.0288    2.3896    0.0000 C.ar    1  UNL1        0.2380
     25 C           7.7609    2.3829    0.0000 C.ar    1  UNL1        0.1808
     26 C           6.8968    2.8863    0.0000 C.ar    1  UNL1        0.2082
     27 C           8.6288    2.8796    0.0000 C.ar    1  UNL1        0.0213
     28 C           9.4929    2.3763    0.0000 C.ar    1  UNL1       -0.0475
     29 C           8.6327    3.8796    0.0000 C.ar    1  UNL1       -0.0475
     30 C          10.3608    2.8729    0.0000 C.ar    1  UNL1       -0.0195
     31 C           9.5006    4.3762    0.0000 C.ar    1  UNL1       -0.0195
     32 C          10.3647    3.8729    0.0000 C.ar    1  UNL1        0.1169
     33 H           4.8059   -3.9896    0.0000 H       1  UNL1        0.0648
     34 H           3.4030   -3.7996    0.0000 H       1  UNL1        0.0646
     35 H           5.6720   -2.8696    0.0000 H       1  UNL1        0.0683
     36 H           3.4030   -1.5596    0.0000 H       1  UNL1        0.0621
     37 H           5.1350   -1.5596    0.0000 H       1  UNL1        0.1084
     38 H           2.8469   -1.1426    0.0000 H       1  UNL1        0.0255
     39 H           2.0000   -1.3696    0.0000 H       1  UNL1        0.0255
     40 H           2.2269   -2.2165    0.0000 H       1  UNL1        0.0255
     41 H           3.7320   -4.9896    0.0000 H       1  UNL1        0.2100
     42 H           2.0000   -3.3696    0.0000 H       1  UNL1        0.2100
     43 H           6.0010   -4.2996    0.0000 H       1  UNL1        0.2102
     44 H           4.5617   -0.4611    0.0000 H       1  UNL1        0.0692
     45 H           7.7757   -1.2686    0.0000 H       1  UNL1        0.2924
     46 H           3.7132    1.0979    0.0000 H       1  UNL1        0.2922
     47 H           9.4905    1.7563    0.0000 H       1  UNL1        0.0626
     48 H           8.0969    4.1916    0.0000 H       1  UNL1        0.0626
     49 H           6.3649    4.1983    0.0000 H       1  UNL1        0.2924
     50 H          10.8966    2.5608    0.0000 H       1  UNL1        0.0654
     51 H           9.5030    4.9962    0.0000 H       1  UNL1        0.0654
     52 H          11.2350    4.9896    0.0000 H       1  UNL1        0.2921
@<TRIPOS>BOND
     1     1    15    1
     2     1    16    1
     3    16     2    1
     4     2    18    1
     5    12     3    1
     6     3    41    1
     7    13     4    1
     8     4    42    1
     9    14     5    1
    10     5    43    1
    11     6    21   ar
    12     6    25   ar
    13     7    19    1
    14     7    45    1
    15     8    23    1
    16     8    46    1
    17     9    26    1
    18     9    49    1
    19    10    24    2
    20    11    32    1
    21    11    52    1
    22    12    13    1
    23    12    14    1
    24    12    33    1
    25    13    15    1
    26    13    34    1
    27    14    16    1
    28    14    35    1
    29    15    17    1
    30    15    36    1
    31    16    37    1
    32    17    38    1
    33    17    39    1
    34    17    40    1
    35    18    19   ar
    36    18    20   ar
    37    19    21   ar
    38    20    23   ar
    39    20    44    1
    40    21    22   ar
    41    22    23   ar
    42    22    24   ar
    43    24    26   ar
    44    25    26   ar
    45    25    27    1
    46    27    28   ar
    47    27    29   ar
    48    28    30   ar
    49    28    47    1
    50    29    31   ar
    51    29    48    1
    52    30    32   ar
    53    30    50    1
    54    31    32   ar
    55    31    51    1
