@<TRIPOS>MOLECULE
IMPHY007505
 87 92 0 0 0
SMALL
GASTEIGER

@<TRIPOS>ATOM
      1 O           7.7662    1.7904    0.0000 O.3     1  UNL1       -0.3877
      2 O           7.7901   -1.2855    0.0000 O.3     1  UNL1       -0.4572
      3 O           6.0010   -3.4132    0.0000 O.3     1  UNL1       -0.3453
      4 O           4.3961   -0.8440    0.0000 O.2     1  UNL1       -0.3003
      5 O           3.9166    5.0298    0.0000 O.2     1  UNL1       -0.4303
      6 O           4.2690   -3.4132    0.0000 O.3     1  UNL1       -0.3431
      7 O           8.6619    0.2112    0.0000 O.2     1  UNL1       -0.2511
      8 O           6.0010   -5.4132    0.0000 O.3     1  UNL1       -0.3841
      9 O           3.5529    6.7232    0.0000 O.2     1  UNL1       -0.2452
     10 O           4.2690   -6.4132    0.0000 O.3     1  UNL1       -0.3864
     11 O           2.5369   -5.4132    0.0000 O.3     1  UNL1       -0.3866
     12 C           6.8982    2.2870    0.0000 C.3     1  UNL1        0.0751
     13 C           6.9021    1.2870    0.0000 C.3     1  UNL1       -0.0076
     14 C           6.0380    0.7837    0.0000 C.3     1  UNL1       -0.0198
     15 C           6.0303    2.7837    0.0000 C.3     1  UNL1        0.0039
     16 C           6.0260   -0.2579    0.0000 C.3     1  UNL1        0.0689
     17 C           6.9260   -0.7822    0.0000 C.3     1  UNL1        0.1281
     18 C           5.1701    1.2804    0.0000 C.3     1  UNL1       -0.0483
     19 C           5.1662    2.2804    0.0000 C.3     1  UNL1       -0.0442
     20 C           6.2358    3.7563    0.0000 C.3     1  UNL1       -0.0049
     21 C           7.8140    0.7837    0.0000 C.3     1  UNL1       -0.0437
     22 C           7.6327    2.9570    0.0000 C.3     1  UNL1       -0.0226
     23 C           7.8261   -0.2579    0.0000 C.3     1  UNL1       -0.0114
     24 C           7.2241    3.8632    0.0000 C.3     1  UNL1       -0.0429
     25 C           5.0761   -0.7822    0.0000 C.3     1  UNL1       -0.0346
     26 C           6.9386   -1.8671    0.0000 C.3     1  UNL1        0.0146
     27 C           5.1624    3.2803    0.0000 C.3     1  UNL1       -0.0564
     28 C           5.0635   -1.8671    0.0000 C.3     1  UNL1       -0.0253
     29 C           6.0010   -2.4132    0.0000 C.3     1  UNL1        0.0655
     30 C           5.0418   -0.0804    0.0000 C.2     1  UNL1        0.1305
     31 C           5.5650    4.4980    0.0000 C.ar    1  UNL1       -0.0085
     32 C           5.8720    5.4497    0.0000 C.ar    1  UNL1       -0.0486
     33 C           4.5873    4.2880    0.0000 C.ar    1  UNL1        0.0994
     34 C           8.6581   -0.7888    0.0000 C.2     1  UNL1        0.3045
     35 C           5.1350   -3.9132    0.0000 C.3     1  UNL1        0.1881
     36 C           5.2013    6.1914    0.0000 C.ar    1  UNL1        0.0233
     37 C           9.5222   -1.2922    0.0000 C.3     1  UNL1        0.0333
     38 C           5.1350   -4.9132    0.0000 C.3     1  UNL1        0.1341
     39 C           4.2236    5.9815    0.0000 C.ar    1  UNL1        0.3367
     40 C           4.2690   -5.4132    0.0000 C.3     1  UNL1        0.1140
     41 C           3.4030   -3.9132    0.0000 C.3     1  UNL1        0.0873
     42 C           3.4030   -4.9132    0.0000 C.3     1  UNL1        0.1095
     43 C           2.5369   -3.4132    0.0000 C.3     1  UNL1       -0.0361
     44 H           7.6333    1.7205    0.0000 H       1  UNL1        0.0332
     45 H           5.3002    0.3615    0.0000 H       1  UNL1        0.0315
     46 H           4.5591    1.3857    0.0000 H       1  UNL1        0.0269
     47 H           4.9602    0.6969    0.0000 H       1  UNL1        0.0269
     48 H           4.9519    2.8621    0.0000 H       1  UNL1        0.0272
     49 H           4.5560    2.1703    0.0000 H       1  UNL1        0.0272
     50 H           6.4565    4.3357    0.0000 H       1  UNL1        0.0356
     51 H           8.4261    0.6847    0.0000 H       1  UNL1        0.0270
     52 H           8.0163    1.3698    0.0000 H       1  UNL1        0.0270
     53 H           8.0000    2.4575    0.0000 H       1  UNL1        0.0293
     54 H           8.1680    3.2698    0.0000 H       1  UNL1        0.0293
     55 H           8.0419   -0.8391    0.0000 H       1  UNL1        0.0304
     56 H           8.4357   -0.1447    0.0000 H       1  UNL1        0.0304
     57 H           7.8129    4.0572    0.0000 H       1  UNL1        0.0272
     58 H           7.0930    4.4692    0.0000 H       1  UNL1        0.0272
     59 H           4.8738   -0.1961    0.0000 H       1  UNL1        0.0277
     60 H           4.4640   -0.8812    0.0000 H       1  UNL1        0.0277
     61 H           7.1544   -2.4483    0.0000 H       1  UNL1        0.0329
     62 H           7.5482   -1.7539    0.0000 H       1  UNL1        0.0329
     63 H           5.4703    3.8185    0.0000 H       1  UNL1        0.0236
     64 H           4.6242    3.5883    0.0000 H       1  UNL1        0.0236
     65 H           4.8544    2.7422    0.0000 H       1  UNL1        0.0236
     66 H           4.4539   -1.7539    0.0000 H       1  UNL1        0.0290
     67 H           4.8477   -2.4483    0.0000 H       1  UNL1        0.0290
     68 H           6.5386   -2.7222    0.0000 H       1  UNL1        0.0598
     69 H           4.8320    0.5030    0.0000 H       1  UNL1        0.1033
     70 H           8.3019    2.1024    0.0000 H       1  UNL1        0.2102
     71 H           6.4782    5.5799    0.0000 H       1  UNL1        0.0623
     72 H           4.3970    3.6980    0.0000 H       1  UNL1        0.1033
     73 H           5.1350   -3.2932    0.0000 H       1  UNL1        0.0937
     74 H           5.3917    6.7815    0.0000 H       1  UNL1        0.0689
     75 H           9.2101   -1.8279    0.0000 H       1  UNL1        0.0342
     76 H          10.0579   -1.6042    0.0000 H       1  UNL1        0.0342
     77 H           9.8342   -0.7564    0.0000 H       1  UNL1        0.0342
     78 H           5.1350   -5.5332    0.0000 H       1  UNL1        0.0671
     79 H           3.7320   -5.7232    0.0000 H       1  UNL1        0.0648
     80 H           3.4030   -3.2932    0.0000 H       1  UNL1        0.0621
     81 H           2.8660   -4.6032    0.0000 H       1  UNL1        0.0646
     82 H           6.0010   -6.0332    0.0000 H       1  UNL1        0.2101
     83 H           2.8469   -2.8763    0.0000 H       1  UNL1        0.0255
     84 H           2.0000   -3.1032    0.0000 H       1  UNL1        0.0255
     85 H           2.2269   -3.9501    0.0000 H       1  UNL1        0.0255
     86 H           3.7320   -6.7232    0.0000 H       1  UNL1        0.2100
     87 H           2.0000   -5.1032    0.0000 H       1  UNL1        0.2100
@<TRIPOS>BOND
     1    12     1    1
     2     1    70    1
     3    17     2    1
     4     2    34    1
     5    29     3    1
     6    35     3    1
     7     4    30    2
     8     5    33   ar
     9     5    39   ar
    10     6    35    1
    11     6    41    1
    12     7    34    2
    13    38     8    1
    14     8    82    1
    15     9    39    2
    16    40    10    1
    17    10    86    1
    18    42    11    1
    19    11    87    1
    20    12    13    1
    21    12    15    1
    22    12    22    1
    23    13    14    1
    24    13    21    1
    25    13    44    1
    26    14    16    1
    27    14    18    1
    28    14    45    1
    29    15    19    1
    30    15    20    1
    31    15    27    1
    32    16    17    1
    33    16    25    1
    34    16    30    1
    35    17    23    1
    36    17    26    1
    37    18    19    1
    38    18    46    1
    39    18    47    1
    40    19    48    1
    41    19    49    1
    42    20    24    1
    43    20    31    1
    44    20    50    1
    45    21    23    1
    46    21    51    1
    47    21    52    1
    48    22    24    1
    49    22    53    1
    50    22    54    1
    51    23    55    1
    52    23    56    1
    53    24    57    1
    54    24    58    1
    55    25    28    1
    56    25    59    1
    57    25    60    1
    58    26    29    1
    59    26    61    1
    60    26    62    1
    61    27    63    1
    62    27    64    1
    63    27    65    1
    64    28    29    1
    65    28    66    1
    66    28    67    1
    67    29    68    1
    68    30    69    1
    69    31    32   ar
    70    31    33   ar
    71    32    36   ar
    72    32    71    1
    73    33    72    1
    74    34    37    1
    75    35    38    1
    76    35    73    1
    77    36    39   ar
    78    36    74    1
    79    37    75    1
    80    37    76    1
    81    37    77    1
    82    38    40    1
    83    38    78    1
    84    40    42    1
    85    40    79    1
    86    41    42    1
    87    41    43    1
    88    41    80    1
    89    42    81    1
    90    43    83    1
    91    43    84    1
    92    43    85    1
