@<TRIPOS>MOLECULE
IMPHY006405
 35 35 0 0 0
SMALL
GASTEIGER

@<TRIPOS>ATOM
      1 O           5.5981   -2.1900    0.0000 O.3     1  UNL1       -0.3875
      2 O           3.0000    1.3100    0.0000 O.2     1  UNL1       -0.2876
      3 C           3.0000   -0.6900    0.0000 C.3     1  UNL1       -0.0061
      4 C           3.0000   -1.6900    0.0000 C.3     1  UNL1       -0.0411
      5 C           3.8660   -2.1900    0.0000 C.3     1  UNL1       -0.0222
      6 C           3.8660   -0.1900    0.0000 C.2     1  UNL1        0.0063
      7 C           4.7320   -1.6900    0.0000 C.3     1  UNL1        0.0767
      8 C           4.7320   -0.6900    0.0000 C.2     1  UNL1       -0.0372
      9 C           2.0000   -0.6900    0.0000 C.3     1  UNL1       -0.0557
     10 C           2.5000    0.1760    0.0000 C.3     1  UNL1       -0.0557
     11 C           3.8660    0.8100    0.0000 C.2     1  UNL1        0.1824
     12 C           5.5981   -0.1900    0.0000 C.3     1  UNL1       -0.0407
     13 C           4.7320    1.3100    0.0000 C.2     1  UNL1       -0.0188
     14 C           4.7320    2.3100    0.0000 C.2     1  UNL1       -0.0835
     15 C           5.5981    2.8100    0.0000 C.3     1  UNL1       -0.0464
     16 H           2.3894   -1.5823    0.0000 H       1  UNL1        0.0274
     17 H           2.7880   -2.2726    0.0000 H       1  UNL1        0.0274
     18 H           3.4675   -2.6650    0.0000 H       1  UNL1        0.0294
     19 H           4.2646   -2.6650    0.0000 H       1  UNL1        0.0294
     20 H           4.7320   -2.5400    0.0000 H       1  UNL1        0.0640
     21 H           3.0369    0.4860    0.0000 H       1  UNL1        0.0238
     22 H           2.0000   -0.0700    0.0000 H       1  UNL1        0.0238
     23 H           1.3800   -0.6900    0.0000 H       1  UNL1        0.0238
     24 H           2.0000   -1.3100    0.0000 H       1  UNL1        0.0238
     25 H           2.1900    0.7130    0.0000 H       1  UNL1        0.0238
     26 H           1.9631   -0.1340    0.0000 H       1  UNL1        0.0238
     27 H           5.9081   -0.7269    0.0000 H       1  UNL1        0.0275
     28 H           6.1350    0.1200    0.0000 H       1  UNL1        0.0275
     29 H           5.2881    0.3469    0.0000 H       1  UNL1        0.0275
     30 H           5.5981   -2.8100    0.0000 H       1  UNL1        0.2102
     31 H           5.2690    1.0000    0.0000 H       1  UNL1        0.0653
     32 H           4.1951    2.6200    0.0000 H       1  UNL1        0.0570
     33 H           5.9081    2.2731    0.0000 H       1  UNL1        0.0272
     34 H           6.1350    3.1200    0.0000 H       1  UNL1        0.0272
     35 H           5.2881    3.3469    0.0000 H       1  UNL1        0.0272
@<TRIPOS>BOND
     1     1     7    1
     2     1    30    1
     3     2    11    2
     4     3     4    1
     5     3     6    1
     6     3     9    1
     7     3    10    1
     8     4     5    1
     9     4    16    1
    10     4    17    1
    11     5     7    1
    12     5    18    1
    13     5    19    1
    14     6     8    2
    15     6    11    1
    16     7     8    1
    17     7    20    1
    18     8    12    1
    19     9    22    1
    20     9    23    1
    21     9    24    1
    22    10    21    1
    23    10    25    1
    24    10    26    1
    25    11    13    1
    26    12    27    1
    27    12    28    1
    28    12    29    1
    29    13    14    2
    30    13    31    1
    31    14    15    1
    32    14    32    1
    33    15    33    1
    34    15    34    1
    35    15    35    1
