@<TRIPOS>MOLECULE
IMPHY006716
 47 47 0 0 0
SMALL
GASTEIGER

@<TRIPOS>ATOM
      1 S           6.0010   -1.0950    0.0000 S.3     1  UNL1       -0.0728
      2 S           3.4030    3.4050    0.0000 S.3     1  UNL1       -0.1641
      3 S           7.7331    1.9050    0.0000 S.3     1  UNL1        0.0672
      4 O           4.2690   -1.0950    0.0000 O.3     1  UNL1       -0.3549
      5 O           4.2690   -4.0950    0.0000 O.3     1  UNL1       -0.3865
      6 O           2.5369   -3.0950    0.0000 O.3     1  UNL1       -0.3865
      7 O           6.0010   -3.0950    0.0000 O.3     1  UNL1       -0.3857
      8 O           2.5369   -0.0950    0.0000 O.3     1  UNL1       -0.3924
      9 O           6.8671    1.4050    0.0000 O.2     1  UNL1       -0.2480
     10 O           8.5991    2.4050    0.0000 O.co2   1  UNL1       -0.2572
     11 O           7.2331    2.7710    0.0000 O.2     1  UNL1       -0.3344
     12 O           8.2331    1.0390    0.0000 O.2     1  UNL1       -0.3344
     13 N           6.8671    0.4050    0.0000 N.2     1  UNL1       -0.0521
     14 C           4.2690   -3.0950    0.0000 C.3     1  UNL1        0.1126
     15 C           3.4030   -2.5950    0.0000 C.3     1  UNL1        0.1118
     16 C           5.1350   -2.5950    0.0000 C.3     1  UNL1        0.1192
     17 C           3.4030   -1.5950    0.0000 C.3     1  UNL1        0.1115
     18 C           5.1350   -1.5950    0.0000 C.3     1  UNL1        0.1384
     19 C           2.5369   -1.0950    0.0000 C.3     1  UNL1        0.0730
     20 C           6.0010   -0.0950    0.0000 C.2     1  UNL1        0.1180
     21 C           5.1350    0.4050    0.0000 C.3     1  UNL1       -0.0009
     22 C           5.1350    1.4050    0.0000 C.3     1  UNL1       -0.0463
     23 C           4.2690    1.9050    0.0000 C.3     1  UNL1       -0.0436
     24 C           4.2690    2.9050    0.0000 C.3     1  UNL1       -0.0066
     25 C           3.4030    4.4050    0.0000 C.3     1  UNL1       -0.0181
     26 H           4.8059   -3.4050    0.0000 H       1  UNL1        0.0647
     27 H           3.4030   -3.2150    0.0000 H       1  UNL1        0.0647
     28 H           5.6720   -2.2850    0.0000 H       1  UNL1        0.0655
     29 H           3.4030   -0.9750    0.0000 H       1  UNL1        0.0646
     30 H           5.1350   -0.9750    0.0000 H       1  UNL1        0.0743
     31 H           1.9264   -0.9873    0.0000 H       1  UNL1        0.0584
     32 H           2.3249   -1.6776    0.0000 H       1  UNL1        0.0584
     33 H           3.7320   -4.4050    0.0000 H       1  UNL1        0.2100
     34 H           2.0000   -2.7850    0.0000 H       1  UNL1        0.2100
     35 H           6.5380   -2.7850    0.0000 H       1  UNL1        0.2100
     36 H           4.5244    0.5127    0.0000 H       1  UNL1        0.0334
     37 H           4.9230   -0.1776    0.0000 H       1  UNL1        0.0334
     38 H           5.7456    1.2973    0.0000 H       1  UNL1        0.0269
     39 H           5.3471    1.9876    0.0000 H       1  UNL1        0.0269
     40 H           2.0000    0.2150    0.0000 H       1  UNL1        0.2095
     41 H           3.6584    2.0127    0.0000 H       1  UNL1        0.0273
     42 H           4.0569    1.3224    0.0000 H       1  UNL1        0.0273
     43 H           4.8796    2.7973    0.0000 H       1  UNL1        0.0376
     44 H           4.4810    3.4876    0.0000 H       1  UNL1        0.0376
     45 H           4.0230    4.4050    0.0000 H       1  UNL1        0.0340
     46 H           3.4030    5.0250    0.0000 H       1  UNL1        0.0340
     47 H           2.7830    4.4050    0.0000 H       1  UNL1        0.0340
@<TRIPOS>UNITY_ATOM_ATTR
10 1
charge -1
@<TRIPOS>BOND
     1    18     1    1
     2     1    20    1
     3     2    24    1
     4     2    25    1
     5     3     9    1
     6     3    10    1
     7     3    11    2
     8     3    12    2
     9     4    17    1
    10     4    18    1
    11    14     5    1
    12     5    33    1
    13    15     6    1
    14     6    34    1
    15    16     7    1
    16     7    35    1
    17     8    19    1
    18     8    40    1
    19     9    13    1
    20    13    20    2
    21    14    15    1
    22    14    16    1
    23    14    26    1
    24    15    17    1
    25    15    27    1
    26    16    18    1
    27    16    28    1
    28    17    19    1
    29    17    29    1
    30    18    30    1
    31    19    31    1
    32    19    32    1
    33    20    21    1
    34    21    22    1
    35    21    36    1
    36    21    37    1
    37    22    23    1
    38    22    38    1
    39    22    39    1
    40    23    24    1
    41    23    41    1
    42    23    42    1
    43    24    43    1
    44    24    44    1
    45    25    45    1
    46    25    46    1
    47    25    47    1
