@<TRIPOS>MOLECULE
IMPHY003545
 23 23 0 0 0
SMALL
GASTEIGER

@<TRIPOS>ATOM
      1 O           2.0000   -2.5000    0.0000 O.2     1  UNL1       -0.2957
      2 C           2.8660    2.0000    0.0000 C.3     1  UNL1       -0.0215
      3 C           2.8660    1.0000    0.0000 C.ar    1  UNL1       -0.0448
      4 C           3.7320    2.5000    0.0000 C.3     1  UNL1       -0.0587
      5 C           2.0000    2.5000    0.0000 C.3     1  UNL1       -0.0587
      6 C           2.0000    0.5000    0.0000 C.ar    1  UNL1       -0.0577
      7 C           3.7320    0.5000    0.0000 C.ar    1  UNL1       -0.0577
      8 C           2.0000   -0.5000    0.0000 C.ar    1  UNL1       -0.0513
      9 C           3.7320   -0.5000    0.0000 C.ar    1  UNL1       -0.0513
     10 C           2.8660   -1.0000    0.0000 C.ar    1  UNL1        0.0142
     11 C           2.8660   -2.0000    0.0000 C.2     1  UNL1        0.1502
     12 H           2.8660    2.6200    0.0000 H       1  UNL1        0.0343
     13 H           4.0420    1.9631    0.0000 H       1  UNL1        0.0235
     14 H           4.2690    2.8100    0.0000 H       1  UNL1        0.0235
     15 H           3.4220    3.0369    0.0000 H       1  UNL1        0.0235
     16 H           2.3100    3.0369    0.0000 H       1  UNL1        0.0235
     17 H           1.4631    2.8100    0.0000 H       1  UNL1        0.0235
     18 H           1.6900    1.9631    0.0000 H       1  UNL1        0.0235
     19 H           1.4631    0.8100    0.0000 H       1  UNL1        0.0621
     20 H           4.2690    0.8100    0.0000 H       1  UNL1        0.0621
     21 H           1.4631   -0.8100    0.0000 H       1  UNL1        0.0624
     22 H           4.2690   -0.8100    0.0000 H       1  UNL1        0.0624
     23 H           3.4030   -2.3100    0.0000 H       1  UNL1        0.1081
@<TRIPOS>BOND
     1     1    11    2
     2     2     3    1
     3     2     4    1
     4     2     5    1
     5     2    12    1
     6     3     6   ar
     7     3     7   ar
     8     4    13    1
     9     4    14    1
    10     4    15    1
    11     5    16    1
    12     5    17    1
    13     5    18    1
    14     6     8   ar
    15     6    19    1
    16     7     9   ar
    17     7    20    1
    18     8    10   ar
    19     8    21    1
    20     9    10   ar
    21     9    22    1
    22    10    11    1
    23    11    23    1
