@<TRIPOS>MOLECULE
IMPHY016106
 27 26 0 0 0
SMALL
GASTEIGER

@<TRIPOS>ATOM
      1 O           4.5981    0.0000    0.0000 O.3     1  UNL1       -0.4643
      2 O           3.7320   -1.5000    0.0000 O.2     1  UNL1       -0.2509
      3 C           6.3301    0.0000    0.0000 C.3     1  UNL1       -0.0003
      4 C           5.4641   -0.5000    0.0000 C.3     1  UNL1        0.0959
      5 C           7.1962   -0.5000    0.0000 C.2     1  UNL1       -0.0847
      6 C           8.0622    1.0000    0.0000 C.3     1  UNL1       -0.0376
      7 C           8.0622   -0.0000    0.0000 C.2     1  UNL1       -0.0881
      8 C           2.8660    0.0000    0.0000 C.3     1  UNL1        0.0421
      9 C           3.7320   -0.5000    0.0000 C.2     1  UNL1        0.3068
     10 C           8.9282    1.5000    0.0000 C.3     1  UNL1       -0.0618
     11 C           2.0000   -0.5000    0.0000 C.3     1  UNL1       -0.0552
     12 H           6.7287    0.4749    0.0000 H       1  UNL1        0.0340
     13 H           5.9316    0.4749    0.0000 H       1  UNL1        0.0340
     14 H           5.0656   -0.9749    0.0000 H       1  UNL1        0.0700
     15 H           5.8626   -0.9749    0.0000 H       1  UNL1        0.0700
     16 H           7.1962   -1.1200    0.0000 H       1  UNL1        0.0570
     17 H           7.8501    1.5826    0.0000 H       1  UNL1        0.0305
     18 H           7.4516    0.8923    0.0000 H       1  UNL1        0.0305
     19 H           8.5991   -0.3100    0.0000 H       1  UNL1        0.0569
     20 H           3.2646    0.4749    0.0000 H       1  UNL1        0.0375
     21 H           2.4675    0.4749    0.0000 H       1  UNL1        0.0375
     22 H           9.2382    0.9631    0.0000 H       1  UNL1        0.0233
     23 H           9.4651    1.8100    0.0000 H       1  UNL1        0.0233
     24 H           8.6182    2.0369    0.0000 H       1  UNL1        0.0233
     25 H           1.6900    0.0369    0.0000 H       1  UNL1        0.0235
     26 H           1.4631   -0.8100    0.0000 H       1  UNL1        0.0235
     27 H           2.3100   -1.0369    0.0000 H       1  UNL1        0.0235
@<TRIPOS>BOND
     1     1     4    1
     2     1     9    1
     3     2     9    2
     4     3     4    1
     5     3     5    1
     6     3    12    1
     7     3    13    1
     8     4    14    1
     9     4    15    1
    10     5     7    2
    11     5    16    1
    12     6     7    1
    13     6    10    1
    14     6    17    1
    15     6    18    1
    16     7    19    1
    17     8     9    1
    18     8    11    1
    19     8    20    1
    20     8    21    1
    21    10    22    1
    22    10    23    1
    23    10    24    1
    24    11    25    1
    25    11    26    1
    26    11    27    1
