@<TRIPOS>MOLECULE
IMPHY002534
 43 45 0 0 0
SMALL
GASTEIGER

@<TRIPOS>ATOM
      1 O           5.1350   -0.9070    0.0000 O.3     1  UNL1       -0.3313
      2 O           6.8671   -0.9070    0.0000 O.3     1  UNL1       -0.4587
      3 O           5.1350   -3.9070    0.0000 O.3     1  UNL1       -0.3864
      4 O           3.4030   -2.9070    0.0000 O.3     1  UNL1       -0.3865
      5 O           6.8671   -2.9070    0.0000 O.3     1  UNL1       -0.3829
      6 O           2.5369   -1.4070    0.0000 O.3     1  UNL1       -0.3924
      7 O          10.3592    0.0873    0.0000 O.2     1  UNL1       -0.2679
      8 O           9.5338    3.5970    0.0000 O.3     1  UNL1       -0.4771
      9 O           7.8018    3.6171    0.0000 O.2     1  UNL1       -0.2451
     10 N           8.6273    0.1073    0.0000 N.ar    1  UNL1       -0.3192
     11 C           5.1350   -2.9070    0.0000 C.3     1  UNL1        0.1152
     12 C           4.2690   -2.4070    0.0000 C.3     1  UNL1        0.1120
     13 C           6.0010   -2.4070    0.0000 C.3     1  UNL1        0.1454
     14 C           4.2690   -1.4070    0.0000 C.3     1  UNL1        0.1140
     15 C           6.0010   -1.4070    0.0000 C.3     1  UNL1        0.2309
     16 C           3.4030   -0.9070    0.0000 C.3     1  UNL1        0.0731
     17 C           6.8671    0.0930    0.0000 C.ar    1  UNL1        0.1479
     18 C           7.7671    0.6173    0.0000 C.ar    1  UNL1        0.0923
     19 C           7.7787    1.6172    0.0000 C.ar    1  UNL1        0.0161
     20 C           5.9670    0.6173    0.0000 C.ar    1  UNL1       -0.0177
     21 C           6.8910    2.1622    0.0000 C.ar    1  UNL1       -0.0516
     22 C           8.6504    2.1072    0.0000 C.ar    1  UNL1        0.0731
     23 C           5.9790    1.6588    0.0000 C.ar    1  UNL1       -0.0576
     24 C           9.4991    0.5973    0.0000 C.ar    1  UNL1        0.2500
     25 C           9.5106    1.5972    0.0000 C.ar    1  UNL1        0.0173
     26 C           8.6620    3.1071    0.0000 C.2     1  UNL1        0.3376
     27 H           5.6720   -3.2170    0.0000 H       1  UNL1        0.0648
     28 H           4.2690   -3.0270    0.0000 H       1  UNL1        0.0647
     29 H           6.5380   -2.0970    0.0000 H       1  UNL1        0.0683
     30 H           4.2690   -0.7870    0.0000 H       1  UNL1        0.0647
     31 H           6.0010   -0.7870    0.0000 H       1  UNL1        0.1084
     32 H           3.8015   -0.4321    0.0000 H       1  UNL1        0.0584
     33 H           3.0044   -0.4321    0.0000 H       1  UNL1        0.0584
     34 H           4.5981   -4.2170    0.0000 H       1  UNL1        0.2100
     35 H           3.4030   -3.5270    0.0000 H       1  UNL1        0.2100
     36 H           6.8671   -3.5270    0.0000 H       1  UNL1        0.2102
     37 H           2.0000   -1.0970    0.0000 H       1  UNL1        0.2095
     38 H           5.4277    0.3114    0.0000 H       1  UNL1        0.0655
     39 H           8.6201   -0.5127    0.0000 H       1  UNL1        0.1690
     40 H           6.9053    2.7820    0.0000 H       1  UNL1        0.0624
     41 H           5.4470    1.9771    0.0000 H       1  UNL1        0.0619
     42 H          10.0511    1.9010    0.0000 H       1  UNL1        0.0680
     43 H           9.5409    4.2170    0.0000 H       1  UNL1        0.2954
@<TRIPOS>BOND
     1     1    14    1
     2     1    15    1
     3    15     2    1
     4     2    17    1
     5    11     3    1
     6     3    34    1
     7    12     4    1
     8     4    35    1
     9    13     5    1
    10     5    36    1
    11     6    16    1
    12     6    37    1
    13     7    24    2
    14     8    26    1
    15     8    43    1
    16     9    26    2
    17    10    18   ar
    18    10    24   ar
    19    10    39    1
    20    11    12    1
    21    11    13    1
    22    11    27    1
    23    12    14    1
    24    12    28    1
    25    13    15    1
    26    13    29    1
    27    14    16    1
    28    14    30    1
    29    15    31    1
    30    16    32    1
    31    16    33    1
    32    17    18   ar
    33    17    20   ar
    34    18    19   ar
    35    19    21   ar
    36    19    22   ar
    37    20    23   ar
    38    20    38    1
    39    21    23   ar
    40    21    40    1
    41    22    25   ar
    42    22    26    1
    43    23    41    1
    44    24    25   ar
    45    25    42    1
