@<TRIPOS>MOLECULE
IMPHY002819
 47 51 0 0 0
SMALL
GASTEIGER

@<TRIPOS>ATOM
      1 O           5.8776    0.5374    0.0000 O.3     1  UNL1       -0.4564
      2 O           2.1162   -1.7746    0.0000 O.3     1  UNL1       -0.3843
      3 O           4.8007    1.7658    0.0000 O.3     1  UNL1       -0.4804
      4 O           8.2994    1.0940    0.0000 O.2     1  UNL1       -0.2498
      5 O           8.8358   -0.6863    0.0000 O.3     1  UNL1       -0.3936
      6 O           6.5267    1.6203    0.0000 O.2     1  UNL1       -0.2507
      7 C           4.8095   -0.3508    0.0000 C.3     1  UNL1       -0.0028
      8 C           5.1114   -1.2180    0.0000 C.3     1  UNL1        0.0065
      9 C           6.0235   -1.1965    0.0000 C.3     1  UNL1        0.1252
     10 C           6.2865   -0.3224    0.0000 C.3     1  UNL1        0.0343
     11 C           5.5377    0.1984    0.0000 C.3     1  UNL1        0.0705
     12 C           4.1135   -1.1832    0.0000 C.3     1  UNL1       -0.0130
     13 C           7.2038   -0.1064    0.0000 C.3     1  UNL1        0.1158
     14 C           3.0606   -1.4458    0.0000 C.3     1  UNL1        0.0874
     15 C           3.9426   -0.0462    0.0000 C.3     1  UNL1       -0.0224
     16 C           4.6212   -1.9946    0.0000 C.3     1  UNL1       -0.0431
     17 C           3.7088   -2.0958    0.0000 C.3     1  UNL1       -0.0197
     18 C           6.6612   -1.9110    0.0000 C.3     1  UNL1        0.0060
     19 C           3.1650   -0.5332    0.0000 C.2     1  UNL1       -0.0449
     20 C           7.4686    0.5374    0.0000 C.2     1  UNL1        0.3203
     21 C           7.8489   -0.7926    0.0000 C.2     1  UNL1       -0.0686
     22 C           5.6217    1.1949    0.0000 C.2     1  UNL1        0.3088
     23 C           7.5774   -1.6953    0.0000 C.2     1  UNL1       -0.0830
     24 C           8.1872    0.0748    0.0000 C.3     1  UNL1        0.0638
     25 C           2.3614    0.0619    0.0000 C.2     1  UNL1       -0.0967
     26 H           5.4171   -1.7574    0.0000 H       1  UNL1        0.0345
     27 H           6.4025    0.2866    0.0000 H       1  UNL1        0.0362
     28 H           4.9949    0.4980    0.0000 H       1  UNL1        0.0423
     29 H           4.0706   -1.8018    0.0000 H       1  UNL1        0.0302
     30 H           4.6886   -1.4148    0.0000 H       1  UNL1        0.0302
     31 H           4.2732    0.4783    0.0000 H       1  UNL1        0.0316
     32 H           3.5048    0.3928    0.0000 H       1  UNL1        0.0316
     33 H           4.5506   -2.6105    0.0000 H       1  UNL1        0.0270
     34 H           5.2060   -2.2005    0.0000 H       1  UNL1        0.0270
     35 H           3.1834   -2.4249    0.0000 H       1  UNL1        0.0296
     36 H           3.9127   -2.6813    0.0000 H       1  UNL1        0.0296
     37 H           6.1369   -2.2419    0.0000 H       1  UNL1        0.0346
     38 H           6.9010   -2.4828    0.0000 H       1  UNL1        0.0346
     39 H           8.4524   -0.6505    0.0000 H       1  UNL1        0.0581
     40 H           8.0023   -2.1468    0.0000 H       1  UNL1        0.0571
     41 H           8.7218    0.3889    0.0000 H       1  UNL1        0.0571
     42 H           7.9707    0.6557    0.0000 H       1  UNL1        0.0571
     43 H           2.0000   -2.3836    0.0000 H       1  UNL1        0.2106
     44 H           2.4318    0.6779    0.0000 H       1  UNL1        0.0535
     45 H           1.7927   -0.1851    0.0000 H       1  UNL1        0.0535
     46 H           4.8528    2.3836    0.0000 H       1  UNL1        0.2951
     47 H           9.4456   -0.5740    0.0000 H       1  UNL1        0.2094
@<TRIPOS>BOND
     1     1     9    1
     2     1    20    1
     3     2    14    1
     4     2    43    1
     5     3    22    1
     6     3    46    1
     7     4    20    2
     8     5    24    1
     9     5    47    1
    10     6    22    2
    11     7     8    1
    12     7    11    1
    13     7    12    1
    14     7    15    1
    15     8     9    1
    16     8    16    1
    17     8    26    1
    18     9    10    1
    19     9    18    1
    20    10    11    1
    21    10    13    1
    22    10    27    1
    23    11    22    1
    24    11    28    1
    25    12    14    1
    26    12    29    1
    27    12    30    1
    28    13    20    1
    29    13    21    1
    30    13    24    1
    31    14    17    1
    32    14    19    1
    33    15    19    1
    34    15    31    1
    35    15    32    1
    36    16    17    1
    37    16    33    1
    38    16    34    1
    39    17    35    1
    40    17    36    1
    41    18    23    1
    42    18    37    1
    43    18    38    1
    44    19    25    2
    45    21    23    2
    46    21    39    1
    47    23    40    1
    48    24    41    1
    49    24    42    1
    50    25    44    1
    51    25    45    1
