@<TRIPOS>MOLECULE
IMPHY007515
 39 40 0 0 0
SMALL
GASTEIGER

@<TRIPOS>ATOM
      1 O           2.8660   -0.5000    0.0000 O.3     1  UNL1       -0.4942
      2 O           3.7320    1.0000    0.0000 O.2     1  UNL1       -0.2918
      3 O           6.3301   -0.5000    0.0000 O.3     1  UNL1       -0.5058
      4 O           4.5981   -3.5000    0.0000 O.3     1  UNL1       -0.4949
      5 C           5.4641    1.0000    0.0000 C.3     1  UNL1        0.0147
      6 C           5.4641    2.0000    0.0000 C.3     1  UNL1       -0.0207
      7 C           4.5981   -0.5000    0.0000 C.ar    1  UNL1        0.1005
      8 C           4.5981    0.5000    0.0000 C.2     1  UNL1        0.1705
      9 C           6.3301    2.5000    0.0000 C.ar    1  UNL1       -0.0469
     10 C           3.7320   -1.0000    0.0000 C.ar    1  UNL1        0.1375
     11 C           5.4641   -1.0000    0.0000 C.ar    1  UNL1        0.1343
     12 C           7.1962    2.0000    0.0000 C.ar    1  UNL1       -0.0586
     13 C           6.3301    3.5000    0.0000 C.ar    1  UNL1       -0.0586
     14 C           3.7320   -2.0000    0.0000 C.ar    1  UNL1        0.0227
     15 C           5.4641   -2.0000    0.0000 C.ar    1  UNL1        0.0225
     16 C           4.5981   -2.5000    0.0000 C.ar    1  UNL1        0.1271
     17 C           8.0622    2.5000    0.0000 C.ar    1  UNL1       -0.0615
     18 C           7.1962    4.0000    0.0000 C.ar    1  UNL1       -0.0615
     19 C           8.0622    3.5000    0.0000 C.ar    1  UNL1       -0.0617
     20 C           2.0000   -1.0000    0.0000 C.3     1  UNL1        0.0788
     21 C           5.4641   -4.0000    0.0000 C.3     1  UNL1        0.0788
     22 H           5.6762    0.4174    0.0000 H       1  UNL1        0.0348
     23 H           6.0747    1.1077    0.0000 H       1  UNL1        0.0348
     24 H           5.2520    2.5826    0.0000 H       1  UNL1        0.0317
     25 H           4.8535    1.8923    0.0000 H       1  UNL1        0.0317
     26 H           3.1951   -2.3100    0.0000 H       1  UNL1        0.0691
     27 H           7.1962    1.3800    0.0000 H       1  UNL1        0.0620
     28 H           5.7932    3.8100    0.0000 H       1  UNL1        0.0620
     29 H           6.0010   -2.3100    0.0000 H       1  UNL1        0.0691
     30 H           8.5991    2.1900    0.0000 H       1  UNL1        0.0618
     31 H           7.1962    4.6200    0.0000 H       1  UNL1        0.0618
     32 H           8.5991    3.8100    0.0000 H       1  UNL1        0.0618
     33 H           6.8671   -0.8100    0.0000 H       1  UNL1        0.2922
     34 H           1.6900   -0.4631    0.0000 H       1  UNL1        0.0660
     35 H           1.4631   -1.3100    0.0000 H       1  UNL1        0.0660
     36 H           2.3100   -1.5369    0.0000 H       1  UNL1        0.0660
     37 H           5.1541   -4.5369    0.0000 H       1  UNL1        0.0660
     38 H           6.0010   -4.3100    0.0000 H       1  UNL1        0.0660
     39 H           5.7741   -3.4631    0.0000 H       1  UNL1        0.0660
@<TRIPOS>BOND
     1     1    10    1
     2     1    20    1
     3     2     8    2
     4     3    11    1
     5     3    33    1
     6     4    16    1
     7     4    21    1
     8     5     6    1
     9     5     8    1
    10     5    22    1
    11     5    23    1
    12     6     9    1
    13     6    24    1
    14     6    25    1
    15     7     8    1
    16     7    10   ar
    17     7    11   ar
    18     9    12   ar
    19     9    13   ar
    20    10    14   ar
    21    11    15   ar
    22    12    17   ar
    23    12    27    1
    24    13    18   ar
    25    13    28    1
    26    14    16   ar
    27    14    26    1
    28    15    16   ar
    29    15    29    1
    30    17    19   ar
    31    17    30    1
    32    18    19   ar
    33    18    31    1
    34    19    32    1
    35    20    34    1
    36    20    35    1
    37    20    36    1
    38    21    37    1
    39    21    38    1
    40    21    39    1
