@<TRIPOS>MOLECULE
IMPHY004711
 48 50 0 0 0
SMALL
GASTEIGER

@<TRIPOS>ATOM
      1 O           6.0682   -0.1297    0.0000 O.3     1  UNL1       -0.4898
      2 O           3.4828   -3.6741    0.0000 O.3     1  UNL1       -0.3891
      3 O           6.0682    2.8703    0.0000 O.2     1  UNL1       -0.2912
      4 O           2.5381   -0.1538    0.0000 O.3     1  UNL1       -0.5064
      5 O           8.6663    0.3703    0.0000 O.3     1  UNL1       -0.5064
      6 O          10.3984    3.3703    0.0000 O.3     1  UNL1       -0.5066
      7 C           3.4597   -1.6743    0.0000 C.3     1  UNL1       -0.0203
      8 C           3.4712   -2.6742    0.0000 C.3     1  UNL1        0.0608
      9 C           4.3198   -1.1643    0.0000 C.3     1  UNL1       -0.0181
     10 C           6.9343    1.3703    0.0000 C.3     1  UNL1        0.0846
     11 C           4.3083   -0.1643    0.0000 C.ar    1  UNL1        0.0364
     12 C           5.2022    0.3703    0.0000 C.ar    1  UNL1        0.1376
     13 C           5.2022    1.3703    0.0000 C.ar    1  UNL1        0.0602
     14 C           6.9343    0.3703    0.0000 C.3     1  UNL1        0.1036
     15 C           6.0682    1.8703    0.0000 C.2     1  UNL1        0.1774
     16 C           7.8003    1.8703    0.0000 C.ar    1  UNL1        0.0081
     17 C           3.4022    0.3495    0.0000 C.ar    1  UNL1        0.1235
     18 C           2.4713   -2.6858    0.0000 C.3     1  UNL1       -0.0363
     19 C           4.4712   -2.6626    0.0000 C.3     1  UNL1       -0.0363
     20 C           4.3083    1.9050    0.0000 C.ar    1  UNL1       -0.0443
     21 C           3.4022    1.3911    0.0000 C.ar    1  UNL1       -0.0190
     22 C           8.6663    1.3703    0.0000 C.ar    1  UNL1        0.1243
     23 C           7.8003    2.8703    0.0000 C.ar    1  UNL1       -0.0509
     24 C           9.5323    1.8703    0.0000 C.ar    1  UNL1        0.0216
     25 C           8.6663    3.3703    0.0000 C.ar    1  UNL1       -0.0197
     26 C           9.5323    2.8703    0.0000 C.ar    1  UNL1        0.1203
     27 H           3.2409   -1.0941    0.0000 H       1  UNL1        0.0296
     28 H           2.8504   -1.7890    0.0000 H       1  UNL1        0.0296
     29 H           6.9343    1.9903    0.0000 H       1  UNL1        0.0464
     30 H           4.5386   -1.7444    0.0000 H       1  UNL1        0.0316
     31 H           4.9291   -1.0496    0.0000 H       1  UNL1        0.0316
     32 H           7.1463   -0.2123    0.0000 H       1  UNL1        0.0707
     33 H           7.5449    0.4780    0.0000 H       1  UNL1        0.0707
     34 H           2.4641   -2.0658    0.0000 H       1  UNL1        0.0257
     35 H           4.4783   -3.2826    0.0000 H       1  UNL1        0.0257
     36 H           5.0911   -2.6555    0.0000 H       1  UNL1        0.0257
     37 H           4.4640   -2.0427    0.0000 H       1  UNL1        0.0257
     38 H           1.8513   -2.6929    0.0000 H       1  UNL1        0.0257
     39 H           2.4785   -3.3057    0.0000 H       1  UNL1        0.0257
     40 H           4.3154    2.5249    0.0000 H       1  UNL1        0.0627
     41 H           2.8665    1.7032    0.0000 H       1  UNL1        0.0654
     42 H           2.9495   -3.9903    0.0000 H       1  UNL1        0.2101
     43 H           7.2634    3.1803    0.0000 H       1  UNL1        0.0623
     44 H          10.0693    1.5603    0.0000 H       1  UNL1        0.0691
     45 H           8.6663    3.9903    0.0000 H       1  UNL1        0.0654
     46 H           2.0000    0.1541    0.0000 H       1  UNL1        0.2921
     47 H           9.2033    0.0603    0.0000 H       1  UNL1        0.2921
     48 H          10.3984    3.9903    0.0000 H       1  UNL1        0.2921
@<TRIPOS>BOND
     1     1    12    1
     2     1    14    1
     3     2     8    1
     4     2    42    1
     5     3    15    2
     6     4    17    1
     7     4    46    1
     8     5    22    1
     9     5    47    1
    10     6    26    1
    11     6    48    1
    12     7     8    1
    13     7     9    1
    14     7    27    1
    15     7    28    1
    16     8    18    1
    17     8    19    1
    18     9    11    1
    19     9    30    1
    20     9    31    1
    21    10    14    1
    22    10    15    1
    23    10    16    1
    24    10    29    1
    25    11    12   ar
    26    11    17   ar
    27    12    13   ar
    28    13    15    1
    29    13    20   ar
    30    14    32    1
    31    14    33    1
    32    16    22   ar
    33    16    23   ar
    34    17    21   ar
    35    18    34    1
    36    18    38    1
    37    18    39    1
    38    19    35    1
    39    19    36    1
    40    19    37    1
    41    20    21   ar
    42    20    40    1
    43    21    41    1
    44    22    24   ar
    45    23    25   ar
    46    23    43    1
    47    24    26   ar
    48    24    44    1
    49    25    26   ar
    50    25    45    1
