@<TRIPOS>MOLECULE
IMPHY003359
 86 88 0 0 0
SMALL
GASTEIGER

@<TRIPOS>ATOM
      1 O           4.5832    2.7483    0.0000 O.2     3  GLN3       -0.2735
      2 O           3.0084   -0.4952    0.0000 O.2     2  PRO2       -0.2738
      3 O           5.0041    4.0437    0.0000 O.2     4  PRO4       -0.2738
      4 O           2.8660   -1.8498    0.0000 O.2     1  TYR1       -0.2739
      5 OE1         7.3479   -0.9064    0.0000 O.2     3  GLN3       -0.2760
      6 O           5.6365    7.5934    0.0000 O.3     5  GLN5       -0.4793
      7 OXT         7.2188    6.8889    0.0000 O.2     5  GLN5       -0.2489
      8 OE1         2.8340    5.5572    0.0000 O.2     5  GLN5       -0.2760
      9 OH          2.8660   -7.8498    0.0000 O.3     1  TYR1       -0.5068
     10 N           6.2774    2.3882    0.0000 N.am    4  PRO4       -0.2884
     11 N           4.5981   -1.8498    0.0000 N.am    2  PRO2       -0.2886
     12 N           4.1674    0.7920    0.0000 N.am    3  GLN3       -0.3024
     13 N           6.4054    5.0618    0.0000 N.am    5  GLN5       -0.3008
     14 N           4.5981   -3.8498    0.0000 N.3     1  TYR1       -0.3197
     15 NE2         8.5068    0.3808    0.0000 N.am    3  GLN3       -0.3293
     16 NE2         2.6530    7.2798    0.0000 N.am    5  GLN5       -0.3293
     17 CA          6.5864    3.3392    0.0000 C.3     4  PRO4        0.1023
     18 CA          4.7026   -0.8553    0.0000 C.3     2  PRO2        0.1023
     19 CB          7.5864    3.3392    0.0000 C.3     4  PRO4       -0.0243
     20 CB          5.6808   -0.6474    0.0000 C.3     2  PRO2       -0.0243
     21 CD          7.0864    1.8004    0.0000 C.3     4  PRO4        0.0156
     22 CG          7.8954    2.3882    0.0000 C.3     4  PRO4       -0.0350
     23 CG          6.1808   -1.5134    0.0000 C.3     2  PRO2       -0.0350
     24 CD          5.5116   -2.2565    0.0000 C.3     2  PRO2        0.0156
     25 CA          5.1184    1.1010    0.0000 C.3     3  GLN3        0.1001
     26 C           5.3263    2.0792    0.0000 C.2     3  GLN3        0.2365
     27 C           3.9595   -0.1861    0.0000 C.2     2  PRO2        0.2342
     28 C           5.9986    4.1483    0.0000 C.2     4  PRO4        0.2342
     29 CB          5.8616    0.4319    0.0000 C.3     3  GLN3       -0.0177
     30 C           3.7320   -2.3498    0.0000 C.2     1  TYR1        0.2333
     31 CA          3.7320   -3.3498    0.0000 C.3     1  TYR1        0.0865
     32 CG          6.8126    0.7409    0.0000 C.3     3  GLN3        0.0259
     33 CA          5.8176    5.8708    0.0000 C.3     5  GLN5        0.1207
     34 CB          2.8660   -3.8498    0.0000 C.3     1  TYR1       -0.0039
     35 CB          4.8231    5.7663    0.0000 C.3     5  GLN5       -0.0159
     36 CG          2.8660   -4.8498    0.0000 C.ar    1  TYR1       -0.0452
     37 CD          7.5558    0.0718    0.0000 C.2     3  GLN3        0.2106
     38 C           6.2243    6.7844    0.0000 C.2     5  GLN5        0.3253
     39 CG          4.2353    6.5753    0.0000 C.3     5  GLN5        0.0259
     40 CD1         3.7320   -5.3498    0.0000 C.ar    1  TYR1       -0.0551
     41 CD2         2.0000   -5.3498    0.0000 C.ar    1  TYR1       -0.0551
     42 CD          3.2407    6.4708    0.0000 C.2     5  GLN5        0.2106
     43 CE1         3.7320   -6.3498    0.0000 C.ar    1  TYR1       -0.0199
     44 CE2         2.0000   -6.3498    0.0000 C.ar    1  TYR1       -0.0199
     45 CZ          2.8660   -6.8498    0.0000 C.ar    1  TYR1        0.1169
     46 HA          5.9740    3.2423    0.0000 H       4  PRO4        0.0597
     47 HA          4.1238   -1.0775    0.0000 H       2  PRO2        0.0597
     48 HB1         8.1929    3.4682    0.0000 H       4  PRO4        0.0288
     49 HB2         7.5216    3.9558    0.0000 H       4  PRO4        0.0288
     50 HB1         6.2472   -0.3952    0.0000 H       2  PRO2        0.0288
     51 HB2         5.4892   -0.0577    0.0000 H       2  PRO2        0.0288
     52 HD1         6.6716    1.3397    0.0000 H       4  PRO4        0.0465
     53 HD2         7.5013    1.3397    0.0000 H       4  PRO4        0.0465
     54 HG1         8.2054    1.8513    0.0000 H       4  PRO4        0.0281
     55 HG2         8.4618    2.6404    0.0000 H       4  PRO4        0.0281
     56 HG1         6.5956   -1.9741    0.0000 H       2  PRO2        0.0281
     57 HG2         6.6823   -1.1490    0.0000 H       2  PRO2        0.0281
     58 HD1         5.2016   -2.7935    0.0000 H       2  PRO2        0.0465
     59 HD2         6.0132   -2.6210    0.0000 H       2  PRO2        0.0465
     60 HA          4.6577    1.5159    0.0000 H       3  GLN3        0.0595
     61 H           3.7066    1.2069    0.0000 H       3  GLN3        0.1495
     62 HB1         5.3730    0.0502    0.0000 H       3  GLN3        0.0292
     63 HB2         6.1527   -0.1155    0.0000 H       3  GLN3        0.0292
     64 HA          3.7320   -3.9698    0.0000 H       1  TYR1        0.0558
     65 H           7.0220    5.1266    0.0000 H       5  GLN5        0.1496
     66 HG1         7.3012    1.1226    0.0000 H       3  GLN3        0.0359
     67 HG2         6.5216    1.2883    0.0000 H       3  GLN3        0.0359
     68 HA          5.5654    5.3044    0.0000 H       5  GLN5        0.0614
     69 HB1         2.6540   -3.2672    0.0000 H       1  TYR1        0.0333
     70 HB2         2.2554   -3.9574    0.0000 H       1  TYR1        0.0333
     71 HB1         4.2658    5.4945    0.0000 H       5  GLN5        0.0293
     72 HB2         4.9940    5.1703    0.0000 H       5  GLN5        0.0293
     73 H1          5.1350   -3.5398    0.0000 H       1  TYR1        0.1189
     74 H2          4.5981   -4.4698    0.0000 H       1  TYR1        0.1189
     75 HG1         4.7925    6.8471    0.0000 H       5  GLN5        0.0359
     76 HG2         4.0644    7.1713    0.0000 H       5  GLN5        0.0359
     77 HD1         4.2690   -5.0398    0.0000 H       1  TYR1        0.0621
     78 HD2         1.4631   -5.0398    0.0000 H       1  TYR1        0.0621
     79 HE21        8.9676   -0.0341    0.0000 H       3  GLN3        0.1449
     80 HE22        8.6357    0.9873    0.0000 H       3  GLN3        0.1449
     81 HE1         4.2690   -6.6598    0.0000 H       1  TYR1        0.0654
     82 HE2         1.4631   -6.6598    0.0000 H       1  TYR1        0.0654
     83 H           5.8887    8.1598    0.0000 H       5  GLN5        0.2951
     84 HE21        2.0364    7.2150    0.0000 H       5  GLN5        0.1449
     85 HE22        2.9051    7.8462    0.0000 H       5  GLN5        0.1449
     86 HH          2.3291   -8.1598    0.0000 H       1  TYR1        0.2921
@<TRIPOS>BOND
     1     1    26    2
     2     2    27    2
     3     3    28    2
     4     4    30    2
     5     5    37    2
     6     6    38    1
     7     6    83    1
     8     7    38    2
     9     8    42    2
    10     9    45    1
    11     9    86    1
    12    10    17    1
    13    10    21    1
    14    10    26   am
    15    11    18    1
    16    11    24    1
    17    11    30   am
    18    12    25    1
    19    12    27   am
    20    12    61    1
    21    13    28   am
    22    13    33    1
    23    13    65    1
    24    14    31    1
    25    14    73    1
    26    14    74    1
    27    15    37   am
    28    15    79    1
    29    15    80    1
    30    16    42   am
    31    16    84    1
    32    16    85    1
    33    17    19    1
    34    17    28    1
    35    17    46    1
    36    18    20    1
    37    18    27    1
    38    18    47    1
    39    19    22    1
    40    19    48    1
    41    19    49    1
    42    20    23    1
    43    20    50    1
    44    20    51    1
    45    21    22    1
    46    21    52    1
    47    21    53    1
    48    22    54    1
    49    22    55    1
    50    23    24    1
    51    23    56    1
    52    23    57    1
    53    24    58    1
    54    24    59    1
    55    25    26    1
    56    25    29    1
    57    25    60    1
    58    29    32    1
    59    29    62    1
    60    29    63    1
    61    30    31    1
    62    31    34    1
    63    31    64    1
    64    32    37    1
    65    32    66    1
    66    32    67    1
    67    33    35    1
    68    33    38    1
    69    33    68    1
    70    34    36    1
    71    34    69    1
    72    34    70    1
    73    35    39    1
    74    35    71    1
    75    35    72    1
    76    36    40   ar
    77    36    41   ar
    78    39    42    1
    79    39    75    1
    80    39    76    1
    81    40    43   ar
    82    40    77    1
    83    41    44   ar
    84    41    78    1
    85    43    45   ar
    86    43    81    1
    87    44    45   ar
    88    44    82    1
