@<TRIPOS>MOLECULE
IMPHY000892
 49 51 0 0 0
SMALL
GASTEIGER

@<TRIPOS>ATOM
      1 O           7.8055    1.6854    0.0000 O.2     1  UNL1       -0.4776
      2 O           7.2682   -2.1436    0.0000 O.3     1  UNL1       -0.4531
      3 O           4.8810   -0.1158    0.0000 O.3     1  UNL1       -0.4572
      4 O           7.3190    3.3565    0.0000 O.2     1  UNL1       -0.2883
      5 O           5.9704   -3.3565    0.0000 O.2     1  UNL1       -0.2453
      6 O          10.3728    0.6502    0.0000 O.3     1  UNL1       -0.3903
      7 O           4.5802    1.5899    0.0000 O.2     1  UNL1       -0.2453
      8 C           6.3658   -0.8082    0.0000 C.3     1  UNL1        0.0682
      9 C           5.8658    0.0578    0.0000 C.3     1  UNL1        0.1181
     10 C           6.0394    1.0426    0.0000 C.3     1  UNL1        0.0321
     11 C           6.8055    1.6854    0.0000 C.3     1  UNL1        0.1724
     12 C           7.3055   -1.1502    0.0000 C.3     1  UNL1        0.1326
     13 C           5.7558   -1.5932    0.0000 C.2     1  UNL1        0.0400
     14 C           7.5258    2.3781    0.0000 C.2     1  UNL1        0.2026
     15 C           8.2452   -0.8082    0.0000 C.2     1  UNL1       -0.0344
     16 C           6.1371    2.4292    0.0000 C.3     1  UNL1       -0.0174
     17 C           8.5715    1.0426    0.0000 C.2     1  UNL1        0.1305
     18 C           8.7452    0.0578    0.0000 C.2     1  UNL1        0.0192
     19 C           6.3124   -2.4168    0.0000 C.2     1  UNL1        0.3357
     20 C           8.4650    2.0363    0.0000 C.2     1  UNL1        0.0269
     21 C           4.7563   -1.5600    0.0000 C.2     1  UNL1       -0.0882
     22 C           9.7300   -0.1158    0.0000 C.3     1  UNL1        0.0725
     23 C           4.2382    0.6502    0.0000 C.2     1  UNL1        0.3348
     24 C           3.2534    0.4766    0.0000 C.2     1  UNL1        0.0293
     25 C           2.9114   -0.4631    0.0000 C.3     1  UNL1       -0.0333
     26 C           2.6106    1.2426    0.0000 C.2     1  UNL1       -0.0774
     27 C           2.9526    2.1823    0.0000 C.3     1  UNL1       -0.0461
     28 H           5.5670   -0.5175    0.0000 H       1  UNL1        0.0427
     29 H           5.4274    0.4962    0.0000 H       1  UNL1        0.0743
     30 H           5.7938    1.6119    0.0000 H       1  UNL1        0.0344
     31 H           5.4236    0.9706    0.0000 H       1  UNL1        0.0344
     32 H           8.1042   -1.4410    0.0000 H       1  UNL1        0.0787
     33 H           8.6437   -1.2832    0.0000 H       1  UNL1        0.0613
     34 H           6.5983    2.8436    0.0000 H       1  UNL1        0.0272
     35 H           5.7227    2.8904    0.0000 H       1  UNL1        0.0272
     36 H           5.6759    2.0149    0.0000 H       1  UNL1        0.0272
     37 H           8.9531    2.4185    0.0000 H       1  UNL1        0.0691
     38 H           4.4643   -1.0131    0.0000 H       1  UNL1        0.0540
     39 H           4.4287   -2.0863    0.0000 H       1  UNL1        0.0540
     40 H           9.5179   -0.6985    0.0000 H       1  UNL1        0.0608
     41 H          10.2669   -0.4258    0.0000 H       1  UNL1        0.0608
     42 H          10.9833    0.5425    0.0000 H       1  UNL1        0.2098
     43 H           2.3287   -0.2511    0.0000 H       1  UNL1        0.0280
     44 H           2.6993   -1.0458    0.0000 H       1  UNL1        0.0280
     45 H           3.4940   -0.6752    0.0000 H       1  UNL1        0.0280
     46 H           2.0000    1.1349    0.0000 H       1  UNL1        0.0574
     47 H           3.5352    1.9702    0.0000 H       1  UNL1        0.0272
     48 H           3.1646    2.7649    0.0000 H       1  UNL1        0.0272
     49 H           2.3700    2.3943    0.0000 H       1  UNL1        0.0272
@<TRIPOS>BOND
     1     1    11    1
     2     1    17    1
     3     2    12    1
     4     2    19    1
     5     9     3    1
     6     3    23    1
     7     4    14    2
     8     5    19    2
     9     6    22    1
    10     6    42    1
    11     7    23    2
    12     8     9    1
    13     8    12    1
    14     8    13    1
    15     8    28    1
    16     9    10    1
    17     9    29    1
    18    10    11    1
    19    10    30    1
    20    10    31    1
    21    11    14    1
    22    11    16    1
    23    12    15    1
    24    12    32    1
    25    13    19    1
    26    13    21    2
    27    14    20    1
    28    15    18    2
    29    15    33    1
    30    16    34    1
    31    16    35    1
    32    16    36    1
    33    17    18    1
    34    17    20    2
    35    18    22    1
    36    20    37    1
    37    21    38    1
    38    21    39    1
    39    22    40    1
    40    22    41    1
    41    23    24    1
    42    24    25    1
    43    24    26    2
    44    25    43    1
    45    25    44    1
    46    25    45    1
    47    26    27    1
    48    26    46    1
    49    27    47    1
    50    27    48    1
    51    27    49    1
