@<TRIPOS>MOLECULE
IMPHY012559
 36 38 0 0 0
SMALL
GASTEIGER

@<TRIPOS>ATOM
      1 S           2.7880   -1.3377    0.0000 S.3     1  UNL1       -0.0784
      2 S           2.0000   -1.9533    0.0000 S.3     1  UNL1       -0.0923
      3 O           4.7304   -0.5700    0.0000 O.3     1  UNL1       -0.4605
      4 O           5.3228   -2.1976    0.0000 O.2     1  UNL1       -0.2496
      5 N           7.2424    2.0270    0.0000 N.3     1  UNL1       -0.2992
      6 C           7.7201    0.0785    0.0000 C.3     1  UNL1        0.0138
      7 C           7.9790    1.0444    0.0000 C.3     1  UNL1        0.0138
      8 C           9.1191   -0.4304    0.0000 C.3     1  UNL1       -0.0358
      9 C           9.3779    0.5356    0.0000 C.3     1  UNL1       -0.0358
     10 C           6.4991   -0.7872    0.0000 C.3     1  UNL1        0.0000
     11 C           5.9457    0.7332    0.0000 C.3     1  UNL1        0.0000
     12 C           5.6701   -0.2280    0.0000 C.3     1  UNL1        0.1060
     13 C           6.7424    2.8930    0.0000 C.3     1  UNL1       -0.0122
     14 C           4.5567   -1.5548    0.0000 C.2     1  UNL1        0.3213
     15 C           3.6170   -1.8969    0.0000 C.3     1  UNL1        0.1130
     16 C           3.3414   -2.8581    0.0000 C.3     1  UNL1       -0.0203
     17 C           2.3420   -2.8930    0.0000 C.3     1  UNL1        0.0055
     18 H           7.8029   -0.5360    0.0000 H       1  UNL1        0.0464
     19 H           8.3483    1.5424    0.0000 H       1  UNL1        0.0464
     20 H           8.9241   -1.0189    0.0000 H       1  UNL1        0.0281
     21 H           9.7131   -0.6081    0.0000 H       1  UNL1        0.0281
     22 H           9.9719    0.3578    0.0000 H       1  UNL1        0.0281
     23 H           9.5728    1.1241    0.0000 H       1  UNL1        0.0281
     24 H           6.0933   -1.2559    0.0000 H       1  UNL1        0.0316
     25 H           6.9158   -1.2463    0.0000 H       1  UNL1        0.0316
     26 H           5.9407    1.3532    0.0000 H       1  UNL1        0.0316
     27 H           5.3314    0.8170    0.0000 H       1  UNL1        0.0316
     28 H           5.2166    0.1948    0.0000 H       1  UNL1        0.0735
     29 H           7.2793    3.2030    0.0000 H       1  UNL1        0.0391
     30 H           6.4323    3.4300    0.0000 H       1  UNL1        0.0391
     31 H           6.2054    2.5830    0.0000 H       1  UNL1        0.0391
     32 H           3.6926   -1.2815    0.0000 H       1  UNL1        0.0535
     33 H           3.2982   -3.4766    0.0000 H       1  UNL1        0.0289
     34 H           3.9520   -2.9658    0.0000 H       1  UNL1        0.0289
     35 H           1.7404   -3.0430    0.0000 H       1  UNL1        0.0385
     36 H           2.4283   -3.5070    0.0000 H       1  UNL1        0.0385
@<TRIPOS>BOND
     1     1     2    1
     2     1    15    1
     3     2    17    1
     4     3    12    1
     5     3    14    1
     6     4    14    2
     7     5     6    1
     8     5     7    1
     9     5    13    1
    10     6     8    1
    11     6    10    1
    12     6    18    1
    13     7     9    1
    14     7    11    1
    15     7    19    1
    16     8     9    1
    17     8    20    1
    18     8    21    1
    19     9    22    1
    20     9    23    1
    21    10    12    1
    22    10    24    1
    23    10    25    1
    24    11    12    1
    25    11    26    1
    26    11    27    1
    27    12    28    1
    28    13    29    1
    29    13    30    1
    30    13    31    1
    31    15    14    1
    32    15    16    1
    33    15    32    1
    34    16    17    1
    35    16    33    1
    36    16    34    1
    37    17    35    1
    38    17    36    1
