@<TRIPOS>MOLECULE
IMPHY009091
 113 114 0 0 0
SMALL
GASTEIGER

@<TRIPOS>ATOM
      1 O          14.6684   -2.4786    0.0000 O.3     1  UNL1       -0.3683
      2 O          16.6364   -3.1779    0.0000 O.3     1  UNL1       -0.3892
      3 O          12.7004   -3.1779    0.0000 O.3     1  UNL1       -0.3892
      4 O          30.5092    1.6482    0.0000 O.3     1  UNL1       -0.4542
      5 O          30.4159   -0.1313    0.0000 O.2     1  UNL1       -0.2453
      6 C          15.4774   -1.8908    0.0000 C.3     1  UNL1        0.0850
      7 C          13.8594   -1.8908    0.0000 C.3     1  UNL1        0.0850
      8 C          15.1684   -0.9397    0.0000 C.3     1  UNL1       -0.0217
      9 C          14.1684   -0.9397    0.0000 C.3     1  UNL1       -0.0217
     10 C          16.4285   -2.1998    0.0000 C.3     1  UNL1        0.0813
     11 C          12.9084   -2.1998    0.0000 C.3     1  UNL1        0.0813
     12 C          17.1716   -1.5307    0.0000 C.3     1  UNL1       -0.0244
     13 C          12.1652   -1.5307    0.0000 C.3     1  UNL1       -0.0244
     14 C          18.1227   -1.8397    0.0000 C.3     1  UNL1       -0.0506
     15 C          11.2142   -1.8397    0.0000 C.3     1  UNL1       -0.0506
     16 C          18.8658   -1.1706    0.0000 C.3     1  UNL1       -0.0530
     17 C          10.4710   -1.1706    0.0000 C.3     1  UNL1       -0.0530
     18 C          19.8169   -1.4796    0.0000 C.3     1  UNL1       -0.0531
     19 C           9.5200   -1.4796    0.0000 C.3     1  UNL1       -0.0531
     20 C          20.5600   -0.8104    0.0000 C.3     1  UNL1       -0.0531
     21 C           8.7768   -0.8104    0.0000 C.3     1  UNL1       -0.0531
     22 C          21.5111   -1.1195    0.0000 C.3     1  UNL1       -0.0531
     23 C           7.8258   -1.1195    0.0000 C.3     1  UNL1       -0.0531
     24 C          22.2542   -0.4503    0.0000 C.3     1  UNL1       -0.0531
     25 C           7.0826   -0.4503    0.0000 C.3     1  UNL1       -0.0531
     26 C          23.2053   -0.7593    0.0000 C.3     1  UNL1       -0.0531
     27 C           6.1316   -0.7593    0.0000 C.3     1  UNL1       -0.0531
     28 C          23.9485   -0.0902    0.0000 C.3     1  UNL1       -0.0531
     29 C          24.8995   -0.3992    0.0000 C.3     1  UNL1       -0.0531
     30 C           5.3884   -0.0902    0.0000 C.3     1  UNL1       -0.0531
     31 C          25.6427    0.2699    0.0000 C.3     1  UNL1       -0.0530
     32 C           4.4374   -0.3992    0.0000 C.3     1  UNL1       -0.0531
     33 C          26.5937   -0.0391    0.0000 C.3     1  UNL1       -0.0528
     34 C          27.3369    0.6300    0.0000 C.3     1  UNL1       -0.0488
     35 C           3.6942    0.2699    0.0000 C.3     1  UNL1       -0.0533
     36 C          28.2879    0.3210    0.0000 C.3     1  UNL1       -0.0211
     37 C           2.7431   -0.0391    0.0000 C.3     1  UNL1       -0.0559
     38 C          29.0311    0.9901    0.0000 C.2     1  UNL1        0.0361
     39 C          28.9265    1.9846    0.0000 C.2     1  UNL1       -0.0343
     40 C          29.8401    2.3914    0.0000 C.3     1  UNL1        0.1195
     41 C           2.0000    0.6300    0.0000 C.3     1  UNL1       -0.0653
     42 C          30.0092    0.7822    0.0000 C.2     1  UNL1        0.3355
     43 C          30.0480    3.3695    0.0000 C.3     1  UNL1       -0.0240
     44 H          15.6104   -2.7303    0.0000 H       1  UNL1        0.0622
     45 H          13.7264   -2.7303    0.0000 H       1  UNL1        0.0622
     46 H          15.7749   -0.8108    0.0000 H       1  UNL1        0.0292
     47 H          15.1036   -0.3231    0.0000 H       1  UNL1        0.0292
     48 H          14.2332   -0.3231    0.0000 H       1  UNL1        0.0292
     49 H          13.5620   -0.8108    0.0000 H       1  UNL1        0.0292
     50 H          17.0182   -2.3914    0.0000 H       1  UNL1        0.0619
     51 H          12.3187   -2.3914    0.0000 H       1  UNL1        0.0619
     52 H          17.4627   -0.9832    0.0000 H       1  UNL1        0.0291
     53 H          16.6831   -1.1490    0.0000 H       1  UNL1        0.0291
     54 H          12.6538   -1.1490    0.0000 H       1  UNL1        0.0291
     55 H          11.8741   -0.9832    0.0000 H       1  UNL1        0.0291
     56 H          17.8316   -2.3871    0.0000 H       1  UNL1        0.0266
     57 H          18.6113   -2.2214    0.0000 H       1  UNL1        0.0266
     58 H          10.7256   -2.2214    0.0000 H       1  UNL1        0.0266
     59 H          11.5052   -2.3871    0.0000 H       1  UNL1        0.0266
     60 H          19.1569   -0.6231    0.0000 H       1  UNL1        0.0265
     61 H          18.3773   -0.7888    0.0000 H       1  UNL1        0.0265
     62 H          10.9596   -0.7888    0.0000 H       1  UNL1        0.0265
     63 H          10.1799   -0.6231    0.0000 H       1  UNL1        0.0265
     64 H          17.2261   -3.3695    0.0000 H       1  UNL1        0.2099
     65 H          12.1108   -3.3695    0.0000 H       1  UNL1        0.2099
     66 H          19.5258   -2.0270    0.0000 H       1  UNL1        0.0265
     67 H          20.3055   -1.8613    0.0000 H       1  UNL1        0.0265
     68 H           9.0314   -1.8613    0.0000 H       1  UNL1        0.0265
     69 H           9.8110   -2.0270    0.0000 H       1  UNL1        0.0265
     70 H          20.8511   -0.2630    0.0000 H       1  UNL1        0.0265
     71 H          20.0715   -0.4287    0.0000 H       1  UNL1        0.0265
     72 H           9.2654   -0.4287    0.0000 H       1  UNL1        0.0265
     73 H           8.4857   -0.2630    0.0000 H       1  UNL1        0.0265
     74 H          21.2200   -1.6669    0.0000 H       1  UNL1        0.0265
     75 H          21.9997   -1.5012    0.0000 H       1  UNL1        0.0265
     76 H           7.3372   -1.5012    0.0000 H       1  UNL1        0.0265
     77 H           8.1168   -1.6669    0.0000 H       1  UNL1        0.0265
     78 H          22.5453    0.0971    0.0000 H       1  UNL1        0.0265
     79 H          21.7657   -0.0686    0.0000 H       1  UNL1        0.0265
     80 H           7.5712   -0.0686    0.0000 H       1  UNL1        0.0265
     81 H           6.7915    0.0971    0.0000 H       1  UNL1        0.0265
     82 H          22.9142   -1.3068    0.0000 H       1  UNL1        0.0265
     83 H          23.6939   -1.1410    0.0000 H       1  UNL1        0.0265
     84 H          24.2395    0.4572    0.0000 H       1  UNL1        0.0265
     85 H          23.4599    0.2915    0.0000 H       1  UNL1        0.0265
     86 H           5.6430   -1.1410    0.0000 H       1  UNL1        0.0265
     87 H           6.4226   -1.3068    0.0000 H       1  UNL1        0.0265
     88 H          24.6084   -0.9467    0.0000 H       1  UNL1        0.0265
     89 H          25.3881   -0.7809    0.0000 H       1  UNL1        0.0265
     90 H           5.8770    0.2915    0.0000 H       1  UNL1        0.0265
     91 H           5.0973    0.4572    0.0000 H       1  UNL1        0.0265
     92 H          25.9337    0.8173    0.0000 H       1  UNL1        0.0265
     93 H          25.1541    0.6516    0.0000 H       1  UNL1        0.0265
     94 H           3.9488   -0.7809    0.0000 H       1  UNL1        0.0265
     95 H           4.7284   -0.9467    0.0000 H       1  UNL1        0.0265
     96 H          26.3026   -0.5865    0.0000 H       1  UNL1        0.0265
     97 H          27.0823   -0.4208    0.0000 H       1  UNL1        0.0265
     98 H          27.6279    1.1774    0.0000 H       1  UNL1        0.0268
     99 H          26.8483    1.0117    0.0000 H       1  UNL1        0.0268
    100 H           4.1828    0.6516    0.0000 H       1  UNL1        0.0265
    101 H           3.4031    0.8173    0.0000 H       1  UNL1        0.0265
    102 H          27.9968   -0.2264    0.0000 H       1  UNL1        0.0315
    103 H          28.7765   -0.0607    0.0000 H       1  UNL1        0.0315
    104 H           2.2546   -0.4208    0.0000 H       1  UNL1        0.0263
    105 H           3.0342   -0.5865    0.0000 H       1  UNL1        0.0263
    106 H          28.3896    2.2946    0.0000 H       1  UNL1        0.0613
    107 H          30.4389    2.5519    0.0000 H       1  UNL1        0.0777
    108 H           2.4149    1.0908    0.0000 H       1  UNL1        0.0230
    109 H           1.5392    1.0449    0.0000 H       1  UNL1        0.0230
    110 H           1.5851    0.1693    0.0000 H       1  UNL1        0.0230
    111 H          30.6544    3.2406    0.0000 H       1  UNL1        0.0268
    112 H          30.1769    3.9760    0.0000 H       1  UNL1        0.0268
    113 H          29.4415    3.4984    0.0000 H       1  UNL1        0.0268
@<TRIPOS>BOND
     1     1     6    1
     2     1     7    1
     3    10     2    1
     4     2    64    1
     5    11     3    1
     6     3    65    1
     7     4    40    1
     8     4    42    1
     9     5    42    2
    10     6     8    1
    11     6    10    1
    12     6    44    1
    13     7     9    1
    14     7    11    1
    15     7    45    1
    16     8     9    1
    17     8    46    1
    18     8    47    1
    19     9    48    1
    20     9    49    1
    21    10    12    1
    22    10    50    1
    23    11    13    1
    24    11    51    1
    25    12    14    1
    26    12    52    1
    27    12    53    1
    28    13    15    1
    29    13    54    1
    30    13    55    1
    31    14    16    1
    32    14    56    1
    33    14    57    1
    34    15    17    1
    35    15    58    1
    36    15    59    1
    37    16    18    1
    38    16    60    1
    39    16    61    1
    40    17    19    1
    41    17    62    1
    42    17    63    1
    43    18    20    1
    44    18    66    1
    45    18    67    1
    46    19    21    1
    47    19    68    1
    48    19    69    1
    49    20    22    1
    50    20    70    1
    51    20    71    1
    52    21    23    1
    53    21    72    1
    54    21    73    1
    55    22    24    1
    56    22    74    1
    57    22    75    1
    58    23    25    1
    59    23    76    1
    60    23    77    1
    61    24    26    1
    62    24    78    1
    63    24    79    1
    64    25    27    1
    65    25    80    1
    66    25    81    1
    67    26    28    1
    68    26    82    1
    69    26    83    1
    70    27    30    1
    71    27    86    1
    72    27    87    1
    73    28    29    1
    74    28    84    1
    75    28    85    1
    76    29    31    1
    77    29    88    1
    78    29    89    1
    79    30    32    1
    80    30    90    1
    81    30    91    1
    82    31    33    1
    83    31    92    1
    84    31    93    1
    85    32    35    1
    86    32    94    1
    87    32    95    1
    88    33    34    1
    89    33    96    1
    90    33    97    1
    91    34    36    1
    92    34    98    1
    93    34    99    1
    94    35    37    1
    95    35   100    1
    96    35   101    1
    97    36    38    1
    98    36   102    1
    99    36   103    1
   100    37    41    1
   101    37   104    1
   102    37   105    1
   103    38    39    2
   104    38    42    1
   105    39    40    1
   106    39   106    1
   107    40    43    1
   108    40   107    1
   109    41   108    1
   110    41   109    1
   111    41   110    1
   112    43   111    1
   113    43   112    1
   114    43   113    1
