@<TRIPOS>MOLECULE
IMPHY000417
 57 58 0 0 0
SMALL
GASTEIGER

@<TRIPOS>ATOM
      1 O           2.5000    3.0272    0.0000 O.3     1  UNL1       -0.4675
      2 O           4.0000    3.8932    0.0000 O.2     1  UNL1       -0.2502
      3 C           4.8660    0.6612    0.0000 C.3     1  UNL1       -0.0217
      4 C           4.8660    1.6612    0.0000 C.3     1  UNL1       -0.0193
      5 C           4.0000    2.1612    0.0000 C.3     1  UNL1        0.0683
      6 C           5.7600    0.1265    0.0000 C.3     1  UNL1       -0.0145
      7 C           4.0000    0.1612    0.0000 C.3     1  UNL1       -0.0468
      8 C           5.7600    2.1958    0.0000 C.3     1  UNL1       -0.0450
      9 C           3.1340    1.6612    0.0000 C.3     1  UNL1       -0.0372
     10 C           3.1340    0.6612    0.0000 C.3     1  UNL1       -0.0515
     11 C           4.8660   -0.3388    0.0000 C.3     1  UNL1       -0.0587
     12 C           6.6660    1.6820    0.0000 C.3     1  UNL1       -0.0314
     13 C           6.6660    0.6404    0.0000 C.2     1  UNL1       -0.0730
     14 C           5.7484   -0.8734    0.0000 C.3     1  UNL1       -0.0455
     15 C           4.5000    3.0272    0.0000 C.3     1  UNL1       -0.0491
     16 C           3.5000    3.0272    0.0000 C.2     1  UNL1        0.3131
     17 C           6.6086   -1.3834    0.0000 C.3     1  UNL1       -0.0465
     18 C           7.5301    0.1370    0.0000 C.2     1  UNL1       -0.0992
     19 C           6.5970   -2.3833    0.0000 C.3     1  UNL1       -0.0260
     20 C           5.7253   -2.8733    0.0000 C.3     1  UNL1       -0.0590
     21 C           7.4572   -2.8933    0.0000 C.2     1  UNL1       -0.0883
     22 C           2.0000    3.8932    0.0000 C.3     1  UNL1        0.0817
     23 C           7.4456   -3.8932    0.0000 C.2     1  UNL1       -0.1024
     24 H           4.8595    2.5112    0.0000 H       1  UNL1        0.0317
     25 H           6.2939   -0.1886    0.0000 H       1  UNL1        0.0351
     26 H           3.6015   -0.3138    0.0000 H       1  UNL1        0.0271
     27 H           4.3985   -0.3138    0.0000 H       1  UNL1        0.0271
     28 H           6.1536    2.6749    0.0000 H       1  UNL1        0.0271
     29 H           5.3554    2.6656    0.0000 H       1  UNL1        0.0271
     30 H           2.9219    2.2438    0.0000 H       1  UNL1        0.0276
     31 H           2.5234    1.5535    0.0000 H       1  UNL1        0.0276
     32 H           2.5234    0.7688    0.0000 H       1  UNL1        0.0266
     33 H           2.9219    0.0786    0.0000 H       1  UNL1        0.0266
     34 H           4.2460   -0.3388    0.0000 H       1  UNL1        0.0235
     35 H           4.8660   -0.9588    0.0000 H       1  UNL1        0.0235
     36 H           5.4860   -0.3388    0.0000 H       1  UNL1        0.0235
     37 H           7.2769    1.5759    0.0000 H       1  UNL1        0.0310
     38 H           6.8751    2.2657    0.0000 H       1  UNL1        0.0310
     39 H           5.1391   -0.7587    0.0000 H       1  UNL1        0.0271
     40 H           5.5296   -1.4535    0.0000 H       1  UNL1        0.0271
     41 H           5.0369    2.7172    0.0000 H       1  UNL1        0.0240
     42 H           4.8100    3.5642    0.0000 H       1  UNL1        0.0240
     43 H           3.9631    3.3372    0.0000 H       1  UNL1        0.0240
     44 H           7.2179   -1.4981    0.0000 H       1  UNL1        0.0271
     45 H           6.8274   -0.8033    0.0000 H       1  UNL1        0.0271
     46 H           7.5277   -0.4830    0.0000 H       1  UNL1        0.0534
     47 H           8.0683    0.4450    0.0000 H       1  UNL1        0.0534
     48 H           6.5899   -3.0033    0.0000 H       1  UNL1        0.0340
     49 H           5.4215   -2.3328    0.0000 H       1  UNL1        0.0235
     50 H           5.1848   -3.1770    0.0000 H       1  UNL1        0.0235
     51 H           6.0290   -3.4138    0.0000 H       1  UNL1        0.0235
     52 H           7.9977   -2.5895    0.0000 H       1  UNL1        0.0569
     53 H           2.5369    4.2032    0.0000 H       1  UNL1        0.0661
     54 H           1.6900    4.4302    0.0000 H       1  UNL1        0.0661
     55 H           1.4631    3.5832    0.0000 H       1  UNL1        0.0661
     56 H           6.9052   -4.1970    0.0000 H       1  UNL1        0.0532
     57 H           7.9790   -4.2094    0.0000 H       1  UNL1        0.0532
@<TRIPOS>BOND
     1     1    16    1
     2     1    22    1
     3     2    16    2
     4     3     4    1
     5     3     6    1
     6     3     7    1
     7     3    11    1
     8     4     5    1
     9     4     8    1
    10     4    24    1
    11     5     9    1
    12     5    15    1
    13     5    16    1
    14     6    13    1
    15     6    14    1
    16     6    25    1
    17     7    10    1
    18     7    26    1
    19     7    27    1
    20     8    12    1
    21     8    28    1
    22     8    29    1
    23     9    10    1
    24     9    30    1
    25     9    31    1
    26    10    32    1
    27    10    33    1
    28    11    34    1
    29    11    35    1
    30    11    36    1
    31    12    13    1
    32    12    37    1
    33    12    38    1
    34    13    18    2
    35    14    17    1
    36    14    39    1
    37    14    40    1
    38    15    41    1
    39    15    42    1
    40    15    43    1
    41    17    19    1
    42    17    44    1
    43    17    45    1
    44    18    46    1
    45    18    47    1
    46    19    20    1
    47    19    21    1
    48    19    48    1
    49    20    49    1
    50    20    50    1
    51    20    51    1
    52    21    23    2
    53    21    52    1
    54    22    53    1
    55    22    54    1
    56    22    55    1
    57    23    56    1
    58    23    57    1
