@<TRIPOS>MOLECULE
IMPHY015453
 43 45 0 0 0
SMALL
GASTEIGER

@<TRIPOS>ATOM
      1 O           6.4967    1.9986    0.0000 O.3     1  UNL1       -0.3886
      2 O           2.4079    1.2132    0.0000 O.3     1  UNL1       -0.3944
      3 C           5.1705   -0.7554    0.0000 C.3     1  UNL1       -0.0228
      4 C           4.2695   -0.3215    0.0000 C.3     1  UNL1       -0.0273
      5 C           4.0470    0.6534    0.0000 C.3     1  UNL1       -0.0002
      6 C           4.6705    1.4352    0.0000 C.3     1  UNL1       -0.0041
      7 C           5.2774    0.4214    0.0000 C.3     1  UNL1       -0.0408
      8 C           5.0345   -1.7401    0.0000 C.3     1  UNL1       -0.0379
      9 C           6.0715   -0.3215    0.0000 C.3     1  UNL1       -0.0442
     10 C           5.6705    1.4352    0.0000 C.3     1  UNL1        0.0667
     11 C           3.5844   -1.0418    0.0000 C.3     1  UNL1       -0.0489
     12 C           4.0562   -1.9168    0.0000 C.3     1  UNL1       -0.0497
     13 C           6.2940    0.6534    0.0000 C.3     1  UNL1       -0.0235
     14 C           3.3891    1.4065    0.0000 C.3     1  UNL1        0.0502
     15 C           3.1275    0.2604    0.0000 C.3     1  UNL1       -0.0569
     16 C           5.7561   -2.4324    0.0000 C.3     1  UNL1       -0.0619
     17 C           5.5958    2.4324    0.0000 C.3     1  UNL1       -0.0358
     18 H           3.5037    0.0473    0.0000 H       1  UNL1        0.0312
     19 H           4.4814    2.2639    0.0000 H       1  UNL1        0.0335
     20 H           5.8474    0.1775    0.0000 H       1  UNL1        0.0275
     21 H           5.6852    0.8884    0.0000 H       1  UNL1        0.0275
     22 H           5.6202   -1.5366    0.0000 H       1  UNL1        0.0304
     23 H           6.2094   -0.9260    0.0000 H       1  UNL1        0.0272
     24 H           6.6915   -0.3215    0.0000 H       1  UNL1        0.0272
     25 H           3.1826   -0.5697    0.0000 H       1  UNL1        0.0268
     26 H           3.0727   -1.3918    0.0000 H       1  UNL1        0.0268
     27 H           3.4826   -2.1521    0.0000 H       1  UNL1        0.0268
     28 H           4.2299   -2.5120    0.0000 H       1  UNL1        0.0268
     29 H           6.8526    0.3844    0.0000 H       1  UNL1        0.0293
     30 H           6.6806    1.1382    0.0000 H       1  UNL1        0.0293
     31 H           3.9197    1.7271    0.0000 H       1  UNL1        0.0563
     32 H           3.1654    1.9848    0.0000 H       1  UNL1        0.0563
     33 H           2.8838    0.8305    0.0000 H       1  UNL1        0.0236
     34 H           2.5574    0.0167    0.0000 H       1  UNL1        0.0236
     35 H           3.3712   -0.3097    0.0000 H       1  UNL1        0.0236
     36 H           5.3269   -2.8798    0.0000 H       1  UNL1        0.0233
     37 H           6.2035   -2.8617    0.0000 H       1  UNL1        0.0233
     38 H           6.1853   -1.9851    0.0000 H       1  UNL1        0.0233
     39 H           6.2140    2.4788    0.0000 H       1  UNL1        0.0257
     40 H           5.5494    3.0507    0.0000 H       1  UNL1        0.0257
     41 H           4.9775    2.3861    0.0000 H       1  UNL1        0.0257
     42 H           7.0553    1.7296    0.0000 H       1  UNL1        0.2102
     43 H           2.0000    1.6801    0.0000 H       1  UNL1        0.2094
@<TRIPOS>BOND
     1    10     1    1
     2     1    42    1
     3     2    14    1
     4     2    43    1
     5     3     4    1
     6     3     7    1
     7     3     8    1
     8     3     9    1
     9     4     5    1
    10     4    11    1
    11     4    18    1
    12     5     6    1
    13     5    14    1
    14     5    15    1
    15     6     7    1
    16     6    10    1
    17     6    19    1
    18     7    20    1
    19     7    21    1
    20     8    12    1
    21     8    16    1
    22     8    22    1
    23     9    13    1
    24     9    23    1
    25     9    24    1
    26    10    13    1
    27    10    17    1
    28    11    12    1
    29    11    25    1
    30    11    26    1
    31    12    27    1
    32    12    28    1
    33    13    29    1
    34    13    30    1
    35    14    31    1
    36    14    32    1
    37    15    33    1
    38    15    34    1
    39    15    35    1
    40    16    36    1
    41    16    37    1
    42    16    38    1
    43    17    39    1
    44    17    40    1
    45    17    41    1
