@<TRIPOS>MOLECULE
IMPHY010525
 40 43 0 0 0
SMALL
GASTEIGER

@<TRIPOS>ATOM
      1 O           2.0000   -0.7615    0.0000 O.3     1  UNL1       -0.3650
      2 O           7.3728   -0.7671    0.0000 O.3     1  UNL1       -0.4608
      3 O           7.8210    0.9059    0.0000 O.2     1  UNL1       -0.2501
      4 O          10.2705   -1.5436    0.0000 O.3     1  UNL1       -0.3939
      5 N           3.8802    1.6055    0.0000 N.3     1  UNL1       -0.3052
      6 C           2.6433    0.0047    0.0000 C.3     1  UNL1        0.1021
      7 C           2.9853   -0.9350    0.0000 C.3     1  UNL1        0.1021
      8 C           4.6168    0.6229    0.0000 C.3     1  UNL1        0.0400
      9 C           4.3580   -0.3430    0.0000 C.3     1  UNL1        0.0400
     10 C           6.0485    0.4253    0.0000 C.3     1  UNL1        0.0023
     11 C           5.6297   -1.1376    0.0000 C.3     1  UNL1        0.0023
     12 C           6.4068   -0.5083    0.0000 C.3     1  UNL1        0.1061
     13 C           8.0799   -0.0600    0.0000 C.2     1  UNL1        0.3171
     14 C           9.0458   -0.3189    0.0000 C.3     1  UNL1        0.1044
     15 C           9.7529    0.3883    0.0000 C.ar    1  UNL1       -0.0315
     16 C           9.3046   -1.2848    0.0000 C.3     1  UNL1        0.0612
     17 C          10.7188    0.1294    0.0000 C.ar    1  UNL1       -0.0577
     18 C           9.4941    1.3542    0.0000 C.ar    1  UNL1       -0.0577
     19 C          11.4259    0.8365    0.0000 C.ar    1  UNL1       -0.0615
     20 C          10.2012    2.0613    0.0000 C.ar    1  UNL1       -0.0615
     21 C          11.1671    1.8025    0.0000 C.ar    1  UNL1       -0.0617
     22 H           2.4312    0.5873    0.0000 H       1  UNL1        0.0638
     23 H           3.1973   -1.5176    0.0000 H       1  UNL1        0.0638
     24 H           4.8368    1.4440    0.0000 H       1  UNL1        0.0488
     25 H           4.1380   -1.1640    0.0000 H       1  UNL1        0.0488
     26 H           3.5702    2.1425    0.0000 H       1  UNL1        0.1226
     27 H           6.6563    0.5476    0.0000 H       1  UNL1        0.0317
     28 H           6.0294    1.0450    0.0000 H       1  UNL1        0.0317
     29 H           5.2451   -1.6240    0.0000 H       1  UNL1        0.0317
     30 H           6.0706   -1.5735    0.0000 H       1  UNL1        0.0317
     31 H           6.8217   -0.0476    0.0000 H       1  UNL1        0.0735
     32 H           8.6074   -0.7573    0.0000 H       1  UNL1        0.0485
     33 H           8.6870   -1.3388    0.0000 H       1  UNL1        0.0568
     34 H           9.2506   -1.9024    0.0000 H       1  UNL1        0.0568
     35 H          10.8793   -0.4694    0.0000 H       1  UNL1        0.0621
     36 H           8.8952    1.5146    0.0000 H       1  UNL1        0.0621
     37 H          10.4310   -2.1425    0.0000 H       1  UNL1        0.2094
     38 H          12.0248    0.6761    0.0000 H       1  UNL1        0.0618
     39 H          10.0407    2.6602    0.0000 H       1  UNL1        0.0618
     40 H          11.6055    2.2409    0.0000 H       1  UNL1        0.0618
@<TRIPOS>BOND
     1     6     1    1
     2     7     1    1
     3     2    12    1
     4     2    13    1
     5     3    13    2
     6     4    16    1
     7     4    37    1
     8     5     8    1
     9     5     9    1
    10     5    26    1
    11     6     7    1
    12     6     8    1
    13     6    22    1
    14     7     9    1
    15     7    23    1
    16     8    10    1
    17     8    24    1
    18     9    11    1
    19     9    25    1
    20    10    12    1
    21    10    27    1
    22    10    28    1
    23    11    12    1
    24    11    29    1
    25    11    30    1
    26    12    31    1
    27    13    14    1
    28    14    15    1
    29    14    16    1
    30    14    32    1
    31    15    17   ar
    32    15    18   ar
    33    16    33    1
    34    16    34    1
    35    17    19   ar
    36    17    35    1
    37    18    20   ar
    38    18    36    1
    39    19    21   ar
    40    19    38    1
    41    20    21   ar
    42    20    39    1
    43    21    40    1
