@<TRIPOS>MOLECULE
IMPHY002363
 23 25 0 0 0
SMALL
GASTEIGER

@<TRIPOS>ATOM
      1 C           3.4553    2.4976    0.0000 C.ar    1  UNL1        0.1931
      2 C           3.4553    1.5018    0.0000 C.ar    1  UNL1        0.1158
      3 C           2.5928    3.0036    0.0000 C.ar    1  UNL1        0.2636
      4 O           4.3232    3.0036    0.0000 O.2     1  UNL1       -0.4498
      5 C           4.3204    0.9985    0.0000 C.ar    1  UNL1        0.2049
      6 C           2.5901    1.0067    0.0000 C.ar    1  UNL1        0.2049
      7 C           1.7304    2.5058    0.0000 C.ar    1  UNL1        0.1837
      8 O           2.5955    4.0048    0.0000 O.3     1  UNL1       -0.2800
      9 C           5.1911    2.5058    0.0000 C.ar    1  UNL1        0.1486
     10 C           5.1911    1.5018    0.0000 C.ar    1  UNL1        0.0797
     11 O           4.3204    0.0000    0.0000 O.2     1  UNL1       -0.2862
     12 C           1.7304    1.5045    0.0000 C.ar    1  UNL1        0.0825
     13 O           2.5874    0.0054    0.0000 O.3     1  UNL1       -0.2862
     14 O           0.8625    3.0036    0.0000 O.3     1  UNL1       -0.4680
     15 C           6.0590    3.0064    0.0000 C.ar    1  UNL1        0.0349
     16 C           0.0000    2.5030    0.0000 C.3     1  UNL1        0.2526
     17 C           6.0562    4.0048    0.0000 C.ar    1  UNL1        0.0061
     18 C           6.9241    2.5058    0.0000 C.ar    1  UNL1        0.0061
     19 C           6.9241    4.5082    0.0000 C.ar    1  UNL1        0.0370
     20 C           7.7893    3.0091    0.0000 C.ar    1  UNL1        0.0370
     21 C           7.7893    4.0076    0.0000 C.ar    1  UNL1        0.1387
     22 O           8.6545    4.5082    0.0000 O.3     1  UNL1       -0.4714
     23 C           9.5224    4.0103    0.0000 C.3     1  UNL1        0.2525
@<TRIPOS>BOND
     1     1     2   ar
     2     1     3   ar
     3     1     4   ar
     4     2     5   ar
     5     2     6   ar
     6     3     7   ar
     7     3     8    1
     8     4     9   ar
     9     5    10   ar
    10     5    11    2
    11     6    12   ar
    12     6    13    1
    13     7    12   ar
    14     7    14    1
    15     9    10   ar
    16     9    15    1
    17    14    16    1
    18    15    17   ar
    19    15    18   ar
    20    17    19   ar
    21    18    20   ar
    22    19    21   ar
    23    20    21   ar
    24    21    22    1
    25    22    23    1
