@<TRIPOS>MOLECULE
IMPHY015389
 20 20 0 0 0
SMALL
GASTEIGER

@<TRIPOS>ATOM
      1 O           5.5910    0.1237    0.0000 O.3     1  LEU1       -0.4795
      2 OXT         5.0558   -1.5236    0.0000 O.2     1  LEU1       -0.2492
      3 N           3.0878   -0.8242    0.0000 N.3     1  LEU1       -0.3039
      4 CG          2.5878    0.7146    0.0000 C.3     1  LEU1       -0.0294
      5 CB          3.5878    0.7146    0.0000 C.3     1  LEU1       -0.0234
      6 CA          3.8968   -0.2365    0.0000 C.3     1  LEU1        0.1060
      7 CD1         2.2788   -0.2365    0.0000 C.3     1  LEU1       -0.0007
      8 CD2         2.0000    1.5236    0.0000 C.3     1  LEU1       -0.0612
      9 C           4.8479   -0.5455    0.0000 C.2     1  LEU1        0.3219
     10 HG          1.9754    0.6176    0.0000 H       1  LEU1        0.0311
     11 HB1         4.1942    0.8435    0.0000 H       1  LEU1        0.0289
     12 HB2         3.5230    1.3312    0.0000 H       1  LEU1        0.0289
     13 HA          3.9938   -0.8488    0.0000 H       1  LEU1        0.0576
     14 HD11        1.7124    0.0157    0.0000 H       1  LEU1        0.0427
     15 HD12        1.9688   -0.7734    0.0000 H       1  LEU1        0.0427
     16 H           3.0878   -1.4442    0.0000 H       1  LEU1        0.1227
     17 HD21        2.5016    1.8880    0.0000 H       1  LEU1        0.0233
     18 HD22        1.6356    2.0252    0.0000 H       1  LEU1        0.0233
     19 HD23        1.4984    1.1592    0.0000 H       1  LEU1        0.0233
     20 H           6.1807   -0.0679    0.0000 H       1  LEU1        0.2951
@<TRIPOS>BOND
     1     1     9    1
     2     1    20    1
     3     2     9    2
     4     3     6    1
     5     3     7    1
     6     3    16    1
     7     4     5    1
     8     4     7    1
     9     4     8    1
    10     4    10    1
    11     5     6    1
    12     5    11    1
    13     5    12    1
    14     6     9    1
    15     6    13    1
    16     7    14    1
    17     7    15    1
    18     8    17    1
    19     8    18    1
    20     8    19    1
