@<TRIPOS>MOLECULE
IMPHY016647
 25 24 0 0 0
SMALL
GASTEIGER

@<TRIPOS>ATOM
      1 O           3.7320    0.7500    0.0000 O.3     1  UNL1       -0.4646
      2 O           6.3301   -0.7500    0.0000 O.2     1  UNL1       -0.2968
      3 O           4.5981   -0.7500    0.0000 O.2     1  UNL1       -0.2504
      4 C           7.1962    0.7500    0.0000 C.3     1  UNL1        0.0061
      5 C           8.0622    0.2500    0.0000 C.3     1  UNL1       -0.0492
      6 C           6.3301    0.2500    0.0000 C.2     1  UNL1        0.1440
      7 C           5.4641    0.7500    0.0000 C.3     1  UNL1        0.1032
      8 C           8.9282    0.7500    0.0000 C.3     1  UNL1       -0.0649
      9 C           4.5981    0.2500    0.0000 C.2     1  UNL1        0.3143
     10 C           2.8660    0.2500    0.0000 C.3     1  UNL1        0.0897
     11 C           2.0000    0.7500    0.0000 C.3     1  UNL1       -0.0306
     12 H           7.5947    1.2250    0.0000 H       1  UNL1        0.0342
     13 H           6.7976    1.2250    0.0000 H       1  UNL1        0.0342
     14 H           7.6636   -0.2249    0.0000 H       1  UNL1        0.0267
     15 H           8.4607   -0.2249    0.0000 H       1  UNL1        0.0267
     16 H           5.8626    1.2250    0.0000 H       1  UNL1        0.0456
     17 H           5.0656    1.2250    0.0000 H       1  UNL1        0.0456
     18 H           9.2382    0.2131    0.0000 H       1  UNL1        0.0230
     19 H           9.4651    1.0600    0.0000 H       1  UNL1        0.0230
     20 H           8.6182    1.2869    0.0000 H       1  UNL1        0.0230
     21 H           2.4675   -0.2249    0.0000 H       1  UNL1        0.0694
     22 H           3.2646   -0.2249    0.0000 H       1  UNL1        0.0694
     23 H           2.3100    1.2869    0.0000 H       1  UNL1        0.0262
     24 H           1.4631    1.0600    0.0000 H       1  UNL1        0.0262
     25 H           1.6900    0.2131    0.0000 H       1  UNL1        0.0262
@<TRIPOS>BOND
     1     1     9    1
     2     1    10    1
     3     2     6    2
     4     3     9    2
     5     4     5    1
     6     4     6    1
     7     4    12    1
     8     4    13    1
     9     5     8    1
    10     5    14    1
    11     5    15    1
    12     6     7    1
    13     7     9    1
    14     7    16    1
    15     7    17    1
    16     8    18    1
    17     8    19    1
    18     8    20    1
    19    10    11    1
    20    10    21    1
    21    10    22    1
    22    11    23    1
    23    11    24    1
    24    11    25    1
