@<TRIPOS>MOLECULE
IMPHY011165
 36 38 0 0 0
SMALL
GASTEIGER

@<TRIPOS>ATOM
      1 O           6.0290   -0.9226    0.0000 O.2     1  UNL1       -0.4541
      2 O           4.2690    2.1121    0.0000 O.3     1  UNL1       -0.5055
      3 O           2.5369   -0.8879    0.0000 O.3     1  UNL1       -0.5060
      4 O           6.0174    2.1467    0.0000 O.2     1  UNL1       -0.2869
      5 O          10.3914   -2.4221    0.0000 O.3     1  UNL1       -0.5068
      6 C           5.1350   -0.3879    0.0000 C.ar    1  UNL1        0.1491
      7 C           5.1350    0.6121    0.0000 C.ar    1  UNL1        0.1060
      8 C           4.2690   -0.8879    0.0000 C.ar    1  UNL1        0.0344
      9 C           3.4030    0.6121    0.0000 C.ar    1  UNL1        0.0335
     10 C           4.2690    1.1121    0.0000 C.ar    1  UNL1        0.1376
     11 C           3.4030   -0.3879    0.0000 C.ar    1  UNL1        0.1296
     12 C           6.9350   -0.4087    0.0000 C.ar    1  UNL1        0.1392
     13 C           6.0290    1.1467    0.0000 C.ar    1  UNL1        0.1966
     14 C           6.9350    0.6329    0.0000 C.ar    1  UNL1        0.0288
     15 C           4.2690   -1.8879    0.0000 C.3     1  UNL1       -0.0327
     16 C           7.7991   -0.9121    0.0000 C.ar    1  UNL1        0.0176
     17 C           2.5369    1.1121    0.0000 C.3     1  UNL1       -0.0327
     18 C           7.7953   -1.9121    0.0000 C.ar    1  UNL1       -0.0476
     19 C           8.6671   -0.4154    0.0000 C.ar    1  UNL1       -0.0476
     20 C           8.6594   -2.4154    0.0000 C.ar    1  UNL1       -0.0195
     21 C           9.5312   -0.9188    0.0000 C.ar    1  UNL1       -0.0195
     22 C           9.5273   -1.9187    0.0000 C.ar    1  UNL1        0.1169
     23 H           7.4708    0.9450    0.0000 H       1  UNL1        0.0693
     24 H           3.6490   -1.8879    0.0000 H       1  UNL1        0.0280
     25 H           4.2690   -2.5079    0.0000 H       1  UNL1        0.0280
     26 H           4.8890   -1.8879    0.0000 H       1  UNL1        0.0280
     27 H           2.8469    1.6490    0.0000 H       1  UNL1        0.0280
     28 H           2.0000    1.4221    0.0000 H       1  UNL1        0.0280
     29 H           2.2269    0.5751    0.0000 H       1  UNL1        0.0280
     30 H           7.2571   -2.2200    0.0000 H       1  UNL1        0.0626
     31 H           8.6694    0.2046    0.0000 H       1  UNL1        0.0626
     32 H           3.7320    2.4221    0.0000 H       1  UNL1        0.2922
     33 H           2.0000   -0.5779    0.0000 H       1  UNL1        0.2922
     34 H           8.6570   -3.0354    0.0000 H       1  UNL1        0.0654
     35 H          10.0693   -0.6108    0.0000 H       1  UNL1        0.0654
     36 H          10.9295   -2.1142    0.0000 H       1  UNL1        0.2921
@<TRIPOS>BOND
     1     1     6   ar
     2     1    12   ar
     3     2    10    1
     4     2    32    1
     5     3    11    1
     6     3    33    1
     7     4    13    2
     8     5    22    1
     9     5    36    1
    10     6     7   ar
    11     6     8   ar
    12     7    10   ar
    13     7    13   ar
    14     8    11   ar
    15     8    15    1
    16     9    10   ar
    17     9    11   ar
    18     9    17    1
    19    12    14   ar
    20    12    16    1
    21    13    14   ar
    22    14    23    1
    23    15    24    1
    24    15    25    1
    25    15    26    1
    26    16    18   ar
    27    16    19   ar
    28    17    27    1
    29    17    28    1
    30    17    29    1
    31    18    20   ar
    32    18    30    1
    33    19    21   ar
    34    19    31    1
    35    20    22   ar
    36    20    34    1
    37    21    22   ar
    38    21    35    1
