@<TRIPOS>MOLECULE
IMPHY015739
 40 41 0 0 0
SMALL
GASTEIGER

@<TRIPOS>ATOM
      1 O           2.2307    1.9436    0.0000 O.3     1  UNL1       -0.3944
      2 C           3.4088    0.6739    0.0000 C.3     1  UNL1        0.0010
      3 C           4.1906    0.0504    0.0000 C.3     1  UNL1        0.0061
      4 C           2.4339    0.4514    0.0000 C.3     1  UNL1       -0.0444
      5 C           4.1906   -0.9496    0.0000 C.2     1  UNL1       -0.0628
      6 C           2.0000   -0.4496    0.0000 C.3     1  UNL1       -0.0488
      7 C           3.1863    1.6488    0.0000 C.3     1  UNL1        0.0504
      8 C           5.0846   -1.4843    0.0000 C.3     1  UNL1       -0.0272
      9 C           3.4088   -1.5731    0.0000 C.2     1  UNL1       -0.0728
     10 C           4.0323    1.4557    0.0000 C.3     1  UNL1       -0.0566
     11 C           2.4339   -1.3506    0.0000 C.3     1  UNL1       -0.0317
     12 C           5.0846    0.5851    0.0000 C.2     1  UNL1       -0.0773
     13 C           5.9906   -0.9704    0.0000 C.3     1  UNL1       -0.0283
     14 C           5.9906    0.0712    0.0000 C.2     1  UNL1       -0.0756
     15 C           3.6313   -2.5480    0.0000 C.3     1  UNL1       -0.0435
     16 C           6.8547    0.5745    0.0000 C.3     1  UNL1       -0.0438
     17 H           4.2322    0.6690    0.0000 H       1  UNL1        0.0394
     18 H           2.4339    1.0714    0.0000 H       1  UNL1        0.0272
     19 H           1.8294    0.5893    0.0000 H       1  UNL1        0.0272
     20 H           1.5153   -0.0630    0.0000 H       1  UNL1        0.0268
     21 H           1.5153   -0.8362    0.0000 H       1  UNL1        0.0268
     22 H           3.8055    1.6797    0.0000 H       1  UNL1        0.0563
     23 H           3.2634    2.2640    0.0000 H       1  UNL1        0.0563
     24 H           4.6800   -1.9540    0.0000 H       1  UNL1        0.0313
     25 H           5.4782   -1.9633    0.0000 H       1  UNL1        0.0313
     26 H           4.5170    1.0692    0.0000 H       1  UNL1        0.0236
     27 H           4.4189    1.9404    0.0000 H       1  UNL1        0.0236
     28 H           3.5476    1.8423    0.0000 H       1  UNL1        0.0236
     29 H           1.8294   -1.4885    0.0000 H       1  UNL1        0.0310
     30 H           2.4339   -1.9706    0.0000 H       1  UNL1        0.0310
     31 H           5.0774    1.2050    0.0000 H       1  UNL1        0.0578
     32 H           6.1997   -1.5541    0.0000 H       1  UNL1        0.0313
     33 H           6.6015   -0.8643    0.0000 H       1  UNL1        0.0313
     34 H           3.0269   -2.6860    0.0000 H       1  UNL1        0.0274
     35 H           3.7693   -3.1525    0.0000 H       1  UNL1        0.0274
     36 H           4.2358   -2.4101    0.0000 H       1  UNL1        0.0274
     37 H           7.1668    0.0388    0.0000 H       1  UNL1        0.0274
     38 H           7.3905    0.8866    0.0000 H       1  UNL1        0.0274
     39 H           6.5427    1.1103    0.0000 H       1  UNL1        0.0274
     40 H           2.0928    2.5480    0.0000 H       1  UNL1        0.2094
@<TRIPOS>BOND
     1     1     7    1
     2     1    40    1
     3     2     3    1
     4     2     4    1
     5     2     7    1
     6     2    10    1
     7     3     5    1
     8     3    12    1
     9     3    17    1
    10     4     6    1
    11     4    18    1
    12     4    19    1
    13     5     8    1
    14     5     9    2
    15     6    11    1
    16     6    20    1
    17     6    21    1
    18     7    22    1
    19     7    23    1
    20     8    13    1
    21     8    24    1
    22     8    25    1
    23     9    11    1
    24     9    15    1
    25    10    26    1
    26    10    27    1
    27    10    28    1
    28    11    29    1
    29    11    30    1
    30    12    14    2
    31    12    31    1
    32    13    14    1
    33    13    32    1
    34    13    33    1
    35    14    16    1
    36    15    34    1
    37    15    35    1
    38    15    36    1
    39    16    37    1
    40    16    38    1
    41    16    39    1
