@<TRIPOS>MOLECULE
IMPHY016007
 36 36 0 0 0
SMALL
GASTEIGER

@<TRIPOS>ATOM
      1 O           7.1962    3.2500    0.0000 O.2     1  UNL1       -0.2961
      2 C           3.7320    0.2500    0.0000 C.3     1  UNL1       -0.0488
      3 C           3.7320    1.2500    0.0000 C.3     1  UNL1       -0.0493
      4 C           2.8660   -0.2500    0.0000 C.3     1  UNL1       -0.0277
      5 C           4.5981    1.7500    0.0000 C.3     1  UNL1       -0.0341
      6 C           2.8660   -1.2500    0.0000 C.ar    1  UNL1       -0.0473
      7 C           2.0000   -1.7500    0.0000 C.ar    1  UNL1       -0.0583
      8 C           3.7320   -1.7500    0.0000 C.ar    1  UNL1       -0.0583
      9 C           4.5981    2.7500    0.0000 C.2     1  UNL1       -0.0781
     10 C           2.8660   -3.2500    0.0000 C.ar    1  UNL1       -0.0504
     11 C           2.0000   -2.7500    0.0000 C.ar    1  UNL1       -0.0586
     12 C           3.7320   -2.7500    0.0000 C.ar    1  UNL1       -0.0586
     13 C           5.4641    3.2500    0.0000 C.2     1  UNL1       -0.0152
     14 C           2.8660   -4.2500    0.0000 C.3     1  UNL1       -0.0397
     15 C           5.4641    4.2500    0.0000 C.3     1  UNL1       -0.0370
     16 C           6.3301    2.7500    0.0000 C.2     1  UNL1        0.1457
     17 H           3.9441   -0.3326    0.0000 H       1  UNL1        0.0268
     18 H           4.3426    0.3577    0.0000 H       1  UNL1        0.0268
     19 H           3.5200    1.8326    0.0000 H       1  UNL1        0.0268
     20 H           3.1215    1.1423    0.0000 H       1  UNL1        0.0268
     21 H           2.6540    0.3326    0.0000 H       1  UNL1        0.0313
     22 H           2.2554   -0.3577    0.0000 H       1  UNL1        0.0313
     23 H           4.8101    1.1674    0.0000 H       1  UNL1        0.0308
     24 H           5.2087    1.8577    0.0000 H       1  UNL1        0.0308
     25 H           1.4631   -1.4400    0.0000 H       1  UNL1        0.0620
     26 H           4.2690   -1.4400    0.0000 H       1  UNL1        0.0620
     27 H           4.0611    3.0600    0.0000 H       1  UNL1        0.0576
     28 H           1.4631   -3.0600    0.0000 H       1  UNL1        0.0620
     29 H           4.2690   -3.0600    0.0000 H       1  UNL1        0.0620
     30 H           2.2460   -4.2500    0.0000 H       1  UNL1        0.0278
     31 H           2.8660   -4.8700    0.0000 H       1  UNL1        0.0278
     32 H           3.4860   -4.2500    0.0000 H       1  UNL1        0.0278
     33 H           6.0841    4.2500    0.0000 H       1  UNL1        0.0278
     34 H           5.4641    4.8700    0.0000 H       1  UNL1        0.0278
     35 H           4.8441    4.2500    0.0000 H       1  UNL1        0.0278
     36 H           6.3301    2.1300    0.0000 H       1  UNL1        0.1078
@<TRIPOS>BOND
     1     1    16    2
     2     2     3    1
     3     2     4    1
     4     2    17    1
     5     2    18    1
     6     3     5    1
     7     3    19    1
     8     3    20    1
     9     4     6    1
    10     4    21    1
    11     4    22    1
    12     5     9    1
    13     5    23    1
    14     5    24    1
    15     6     7   ar
    16     6     8   ar
    17     7    11   ar
    18     7    25    1
    19     8    12   ar
    20     8    26    1
    21     9    13    2
    22     9    27    1
    23    10    11   ar
    24    10    12   ar
    25    10    14    1
    26    11    28    1
    27    12    29    1
    28    13    15    1
    29    13    16    1
    30    14    30    1
    31    14    31    1
    32    14    32    1
    33    15    33    1
    34    15    34    1
    35    15    35    1
    36    16    36    1
