@<TRIPOS>MOLECULE
IMPHY007239
 32 35 0 0 0
SMALL
GASTEIGER

@<TRIPOS>ATOM
      1 N           3.8001    2.1062    0.0000 N.3     1  UNL1       -0.3124
      2 N           4.7881   -2.0839    0.0000 N.ar    1  UNL1       -0.3604
      3 C           2.9180    0.5647    0.0000 C.3     1  UNL1        0.0005
      4 C           3.7841    1.0647    0.0000 C.3     1  UNL1        0.0185
      5 C           2.0080    1.0716    0.0000 C.3     1  UNL1       -0.0436
      6 C           4.6501    0.5647    0.0000 C.3     1  UNL1       -0.0097
      7 C           2.9180   -0.4353    0.0000 C.ar    1  UNL1       -0.0334
      8 C           2.0000    2.1132    0.0000 C.3     1  UNL1       -0.0398
      9 C           3.7841   -0.9353    0.0000 C.ar    1  UNL1        0.0064
     10 C           4.6501   -0.4353    0.0000 C.ar    1  UNL1       -0.0206
     11 C           2.9021    2.6340    0.0000 C.3     1  UNL1       -0.0038
     12 C           3.8001   -1.9768    0.0000 C.ar    1  UNL1        0.0470
     13 C           2.0080   -0.9421    0.0000 C.ar    1  UNL1       -0.0576
     14 C           5.2680   -1.2136    0.0000 C.ar    1  UNL1        0.0060
     15 C           2.9021   -2.5045    0.0000 C.ar    1  UNL1       -0.0378
     16 C           2.0000   -1.9837    0.0000 C.ar    1  UNL1       -0.0595
     17 H           2.1852    0.1341    0.0000 H       1  UNL1        0.0364
     18 H           4.5234    1.4841    0.0000 H       1  UNL1        0.0469
     19 H           1.3964    1.1730    0.0000 H       1  UNL1        0.0272
     20 H           1.8035    0.4863    0.0000 H       1  UNL1        0.0272
     21 H           5.2607    0.4571    0.0000 H       1  UNL1        0.0329
     22 H           4.8621    1.1474    0.0000 H       1  UNL1        0.0329
     23 H           1.7864    2.6952    0.0000 H       1  UNL1        0.0278
     24 H           1.3900    2.0024    0.0000 H       1  UNL1        0.0278
     25 H           4.3406    2.4100    0.0000 H       1  UNL1        0.1222
     26 H           3.3030    3.1069    0.0000 H       1  UNL1        0.0424
     27 H           2.5048    3.1100    0.0000 H       1  UNL1        0.0424
     28 H           1.4747   -0.6259    0.0000 H       1  UNL1        0.0621
     29 H           5.8858   -1.1619    0.0000 H       1  UNL1        0.0810
     30 H           5.0741   -2.6340    0.0000 H       1  UNL1        0.1653
     31 H           2.9045   -3.1245    0.0000 H       1  UNL1        0.0638
     32 H           1.4619   -2.2916    0.0000 H       1  UNL1        0.0618
@<TRIPOS>BOND
     1     1     4    1
     2     1    11    1
     3     1    25    1
     4     2    12   ar
     5     2    14   ar
     6     2    30    1
     7     3     4    1
     8     3     5    1
     9     3     7    1
    10     3    17    1
    11     4     6    1
    12     4    18    1
    13     5     8    1
    14     5    19    1
    15     5    20    1
    16     6    10    1
    17     6    21    1
    18     6    22    1
    19     7     9   ar
    20     7    13   ar
    21     8    11    1
    22     8    23    1
    23     8    24    1
    24     9    10   ar
    25     9    12   ar
    26    10    14   ar
    27    11    26    1
    28    11    27    1
    29    12    15   ar
    30    13    16   ar
    31    13    28    1
    32    14    29    1
    33    15    16   ar
    34    15    31    1
    35    16    32    1
