@<TRIPOS>MOLECULE
IMPHY017406
 35 36 0 0 0
SMALL
GASTEIGER

@<TRIPOS>ATOM
      1 O           7.5986   -0.1160    0.0000 O.3     1  UNL1       -0.3523
      2 O           5.8660    1.8840    0.0000 O.2     1  UNL1       -0.2939
      3 O           5.8660   -2.1160    0.0000 O.2     1  UNL1       -0.2939
      4 O           2.0000    0.3840    0.0000 O.2     1  UNL1       -0.2977
      5 C           5.0000    0.3840    0.0000 C.3     1  UNL1        0.0411
      6 C           5.0000   -0.6160    0.0000 C.3     1  UNL1        0.0382
      7 C           6.7320    0.3840    0.0000 C.3     1  UNL1        0.1508
      8 C           6.7320   -0.6160    0.0000 C.3     1  UNL1        0.1508
      9 C           5.8660    0.8840    0.0000 C.2     1  UNL1        0.1715
     10 C           5.8660   -1.1160    0.0000 C.2     1  UNL1        0.1713
     11 C           4.0000    0.3840    0.0000 C.3     1  UNL1       -0.0333
     12 C           4.5000    1.2500    0.0000 C.3     1  UNL1       -0.0518
     13 C           4.5000   -1.4820    0.0000 C.3     1  UNL1       -0.0521
     14 C           4.0000   -0.6160    0.0000 C.3     1  UNL1       -0.0521
     15 C           3.5000    1.2500    0.0000 C.3     1  UNL1        0.0065
     16 C           2.5000    1.2500    0.0000 C.2     1  UNL1        0.1304
     17 C           2.0000    2.1160    0.0000 C.3     1  UNL1       -0.0061
     18 H           7.0420    0.9210    0.0000 H       1  UNL1        0.0707
     19 H           7.0420   -1.1530    0.0000 H       1  UNL1        0.0707
     20 H           3.4174    0.1719    0.0000 H       1  UNL1        0.0279
     21 H           4.1077   -0.2266    0.0000 H       1  UNL1        0.0279
     22 H           5.0369    1.5600    0.0000 H       1  UNL1        0.0239
     23 H           4.1900    1.7869    0.0000 H       1  UNL1        0.0239
     24 H           3.9631    0.9400    0.0000 H       1  UNL1        0.0239
     25 H           3.9631   -1.1720    0.0000 H       1  UNL1        0.0239
     26 H           4.1900   -2.0190    0.0000 H       1  UNL1        0.0239
     27 H           5.0369   -1.7920    0.0000 H       1  UNL1        0.0239
     28 H           4.0000    0.0040    0.0000 H       1  UNL1        0.0239
     29 H           3.3800   -0.6160    0.0000 H       1  UNL1        0.0239
     30 H           4.0000   -1.2360    0.0000 H       1  UNL1        0.0239
     31 H           4.0826    1.4620    0.0000 H       1  UNL1        0.0342
     32 H           3.3923    1.8606    0.0000 H       1  UNL1        0.0342
     33 H           2.5369    2.4260    0.0000 H       1  UNL1        0.0306
     34 H           1.6900    2.6530    0.0000 H       1  UNL1        0.0306
     35 H           1.4631    1.8060    0.0000 H       1  UNL1        0.0306
@<TRIPOS>BOND
     1     1     7    1
     2     1     8    1
     3     2     9    2
     4     3    10    2
     5     4    16    2
     6     5     6    1
     7     5     9    1
     8     5    11    1
     9     5    12    1
    10     6    10    1
    11     6    13    1
    12     6    14    1
    13     7     8    1
    14     7     9    1
    15     7    18    1
    16     8    10    1
    17     8    19    1
    18    11    15    1
    19    11    20    1
    20    11    21    1
    21    12    22    1
    22    12    23    1
    23    12    24    1
    24    13    25    1
    25    13    26    1
    26    13    27    1
    27    14    28    1
    28    14    29    1
    29    14    30    1
    30    15    16    1
    31    15    31    1
    32    15    32    1
    33    16    17    1
    34    17    33    1
    35    17    34    1
    36    17    35    1
