@<TRIPOS>MOLECULE
IMPHY007321
 49 51 0 0 0
SMALL
GASTEIGER

@<TRIPOS>ATOM
      1 O           8.0701    1.3033    0.0000 O.2     1  UNL1       -0.4544
      2 O           7.2051   -1.9677    0.0000 O.3     1  UNL1       -0.5060
      3 C           8.5701   -0.2356    0.0000 C.ar    1  UNL1        0.0351
      4 C           7.5701   -0.2356    0.0000 C.ar    1  UNL1        0.0695
      5 C           9.2550   -1.0203    0.0000 C.ar    1  UNL1       -0.0333
      6 C           8.9350   -1.9677    0.0000 C.3     1  UNL1       -0.0208
      7 C           8.8791    0.7155    0.0000 C.ar    1  UNL1        0.1395
      8 C           7.2611    0.7155    0.0000 C.ar    1  UNL1        0.1400
      9 C           5.5427    0.1790    0.0000 C.ar    1  UNL1       -0.0404
     10 C           4.5654    0.3907    0.0000 C.3     1  UNL1       -0.0275
     11 C           4.2600    1.3430    0.0000 C.3     1  UNL1       -0.0491
     12 C           9.8945    0.9477    0.0000 C.ar    1  UNL1       -0.0076
     13 C           6.8851   -1.0203    0.0000 C.ar    1  UNL1        0.1284
     14 C           6.2457    0.9477    0.0000 C.ar    1  UNL1       -0.0153
     15 C          10.2756   -0.8116    0.0000 C.ar    1  UNL1       -0.0573
     16 C           5.8646   -0.8116    0.0000 C.ar    1  UNL1       -0.0162
     17 C           3.2827    1.5546    0.0000 C.3     1  UNL1       -0.0530
     18 C          10.5974    0.1790    0.0000 C.ar    1  UNL1       -0.0551
     19 C           9.5955   -2.7186    0.0000 C.3     1  UNL1       -0.0586
     20 C           7.9546   -2.1643    0.0000 C.3     1  UNL1       -0.0586
     21 C           2.9773    2.5069    0.0000 C.3     1  UNL1       -0.0559
     22 C          10.1925    1.9023    0.0000 C.3     1  UNL1       -0.0362
     23 C           2.0000    2.7186    0.0000 C.3     1  UNL1       -0.0653
     24 H           8.7366   -2.5551    0.0000 H       1  UNL1        0.0344
     25 H           3.9511    0.3068    0.0000 H       1  UNL1        0.0313
     26 H           4.5414   -0.2288    0.0000 H       1  UNL1        0.0313
     27 H           4.8743    1.4269    0.0000 H       1  UNL1        0.0268
     28 H           4.2840    1.9625    0.0000 H       1  UNL1        0.0268
     29 H           6.0609    1.5396    0.0000 H       1  UNL1        0.0657
     30 H          10.6886   -1.2740    0.0000 H       1  UNL1        0.0621
     31 H           5.4515   -1.2740    0.0000 H       1  UNL1        0.0657
     32 H           2.6684    1.4707    0.0000 H       1  UNL1        0.0265
     33 H           3.2587    0.9351    0.0000 H       1  UNL1        0.0265
     34 H          11.2034    0.3103    0.0000 H       1  UNL1        0.0621
     35 H           9.1300   -3.1281    0.0000 H       1  UNL1        0.0235
     36 H          10.0050   -3.1841    0.0000 H       1  UNL1        0.0235
     37 H          10.0611   -2.3091    0.0000 H       1  UNL1        0.0235
     38 H           7.8327   -1.5564    0.0000 H       1  UNL1        0.0235
     39 H           7.3467   -2.2862    0.0000 H       1  UNL1        0.0235
     40 H           8.0764   -2.7722    0.0000 H       1  UNL1        0.0235
     41 H           3.5916    2.5908    0.0000 H       1  UNL1        0.0263
     42 H           3.0014    3.1264    0.0000 H       1  UNL1        0.0263
     43 H          10.7843    1.7175    0.0000 H       1  UNL1        0.0279
     44 H          10.3773    2.4941    0.0000 H       1  UNL1        0.0279
     45 H           9.6007    2.0870    0.0000 H       1  UNL1        0.0279
     46 H           2.1312    3.3245    0.0000 H       1  UNL1        0.0230
     47 H           1.3940    2.8498    0.0000 H       1  UNL1        0.0230
     48 H           1.8688    2.1126    0.0000 H       1  UNL1        0.0230
     49 H           6.7956   -2.4332    0.0000 H       1  UNL1        0.2922
@<TRIPOS>BOND
     1     1     7   ar
     2     1     8   ar
     3     2    13    1
     4     2    49    1
     5     3     4   ar
     6     3     5   ar
     7     3     7   ar
     8     4     8   ar
     9     4    13   ar
    10     5     6    1
    11     5    15   ar
    12     6    19    1
    13     6    20    1
    14     6    24    1
    15     7    12   ar
    16     8    14   ar
    17     9    10    1
    18     9    14   ar
    19     9    16   ar
    20    10    11    1
    21    10    25    1
    22    10    26    1
    23    11    17    1
    24    11    27    1
    25    11    28    1
    26    12    18   ar
    27    12    22    1
    28    13    16   ar
    29    14    29    1
    30    15    18   ar
    31    15    30    1
    32    16    31    1
    33    17    21    1
    34    17    32    1
    35    17    33    1
    36    18    34    1
    37    19    35    1
    38    19    36    1
    39    19    37    1
    40    20    38    1
    41    20    39    1
    42    20    40    1
    43    21    23    1
    44    21    41    1
    45    21    42    1
    46    22    43    1
    47    22    44    1
    48    22    45    1
    49    23    46    1
    50    23    47    1
    51    23    48    1
