@<TRIPOS>MOLECULE
IMPHY001391
 84 88 0 0 0
SMALL
GASTEIGER

@<TRIPOS>ATOM
      1 O          11.4408    3.0930    0.0000 O.3     1  UNL1       -0.3912
      2 O           2.3162   -0.5105    0.0000 O.3     1  UNL1       -0.3886
      3 O           4.3052   -3.0931    0.0000 O.3     1  UNL1       -0.4802
      4 O           6.0372   -3.1064    0.0000 O.2     1  UNL1       -0.2504
      5 C           7.8329   -0.0513    0.0000 C.3     1  UNL1       -0.0231
      6 C           6.9669   -0.5513    0.0000 C.3     1  UNL1       -0.0233
      7 C           7.8329    0.9487    0.0000 C.3     1  UNL1       -0.0294
      8 C           6.1008   -0.0513    0.0000 C.3     1  UNL1       -0.0309
      9 C           8.7268    1.4833    0.0000 C.3     1  UNL1       -0.0252
     10 C           5.1908   -0.5582    0.0000 C.3     1  UNL1       -0.0168
     11 C           9.6329    0.9695    0.0000 C.3     1  UNL1       -0.0278
     12 C           8.7268   -0.5860    0.0000 C.3     1  UNL1       -0.0466
     13 C           6.9669    1.4487    0.0000 C.3     1  UNL1       -0.0489
     14 C           5.1828   -1.5998    0.0000 C.3     1  UNL1        0.0711
     15 C           6.1008    0.9487    0.0000 C.3     1  UNL1       -0.0491
     16 C           6.9829   -1.5928    0.0000 C.3     1  UNL1       -0.0458
     17 C           9.6329   -0.0722    0.0000 C.3     1  UNL1       -0.0486
     18 C           6.0849   -2.1206    0.0000 C.3     1  UNL1       -0.0364
     19 C          10.5767    1.5047    0.0000 C.3     1  UNL1       -0.0056
     20 C           4.2640    0.0059    0.0000 C.3     1  UNL1       -0.0111
     21 C           8.7018    2.5680    0.0000 C.3     1  UNL1       -0.0447
     22 C           8.1750   -0.9910    0.0000 C.3     1  UNL1       -0.0588
     23 C           7.6097   -1.3174    0.0000 C.3     1  UNL1       -0.0588
     24 C           4.2474   -2.1495    0.0000 C.3     1  UNL1       -0.0344
     25 C           7.8570    1.9766    0.0000 C.3     1  UNL1       -0.0590
     26 C          10.5767    2.5897    0.0000 C.3     1  UNL1        0.0606
     27 C           3.3161   -0.5220    0.0000 C.3     1  UNL1        0.0662
     28 C           9.6329    3.1250    0.0000 C.3     1  UNL1       -0.0258
     29 C           3.3078   -1.6070    0.0000 C.3     1  UNL1       -0.0230
     30 C           5.1751   -2.5997    0.0000 C.2     1  UNL1        0.3112
     31 C          11.5767    1.5009    0.0000 C.3     1  UNL1       -0.0572
     32 C          11.0733    0.6368    0.0000 C.3     1  UNL1       -0.0572
     33 C           4.2833    1.0057    0.0000 C.3     1  UNL1       -0.0595
     34 C           2.8262    0.3497    0.0000 C.3     1  UNL1       -0.0358
     35 H           8.5723    0.5294    0.0000 H       1  UNL1        0.0312
     36 H           6.8370    0.3737    0.0000 H       1  UNL1        0.0309
     37 H           5.2072    0.2917    0.0000 H       1  UNL1        0.0318
     38 H          10.3674    0.5416    0.0000 H       1  UNL1        0.0312
     39 H           8.3222   -1.0558    0.0000 H       1  UNL1        0.0271
     40 H           9.1205   -1.0650    0.0000 H       1  UNL1        0.0271
     41 H           7.3654    1.9236    0.0000 H       1  UNL1        0.0268
     42 H           6.5683    1.9236    0.0000 H       1  UNL1        0.0268
     43 H           5.8888    1.5313    0.0000 H       1  UNL1        0.0268
     44 H           5.4903    0.8410    0.0000 H       1  UNL1        0.0268
     45 H           7.2010   -2.1732    0.0000 H       1  UNL1        0.0271
     46 H           7.5921   -1.4774    0.0000 H       1  UNL1        0.0271
     47 H           9.8420   -0.6558    0.0000 H       1  UNL1        0.0268
     48 H          10.2438    0.0339    0.0000 H       1  UNL1        0.0268
     49 H           5.6876   -2.5966    0.0000 H       1  UNL1        0.0276
     50 H           6.4859   -2.5935    0.0000 H       1  UNL1        0.0276
     51 H           4.8074    0.3044    0.0000 H       1  UNL1        0.0329
     52 H           8.4792    3.1467    0.0000 H       1  UNL1        0.0271
     53 H           8.0935    2.4478    0.0000 H       1  UNL1        0.0271
     54 H           7.5924   -1.2031    0.0000 H       1  UNL1        0.0235
     55 H           8.3871   -1.5736    0.0000 H       1  UNL1        0.0235
     56 H           8.7576   -0.7789    0.0000 H       1  UNL1        0.0235
     57 H           7.1347   -1.7159    0.0000 H       1  UNL1        0.0235
     58 H           8.0082   -1.7923    0.0000 H       1  UNL1        0.0235
     59 H           8.0846   -0.9189    0.0000 H       1  UNL1        0.0235
     60 H           3.8501   -2.6255    0.0000 H       1  UNL1        0.0277
     61 H           4.6484   -2.6224    0.0000 H       1  UNL1        0.0277
     62 H           8.1628    2.5159    0.0000 H       1  UNL1        0.0235
     63 H           7.3177    2.2825    0.0000 H       1  UNL1        0.0235
     64 H           7.5511    1.4373    0.0000 H       1  UNL1        0.0235
     65 H          10.5731    3.2097    0.0000 H       1  UNL1        0.0599
     66 H          10.0265    3.6040    0.0000 H       1  UNL1        0.0290
     67 H           9.2283    3.5947    0.0000 H       1  UNL1        0.0290
     68 H           2.6977   -1.4962    0.0000 H       1  UNL1        0.0293
     69 H           3.0942   -2.1891    0.0000 H       1  UNL1        0.0293
     70 H          11.5743    0.8809    0.0000 H       1  UNL1        0.0236
     71 H          12.1967    1.4985    0.0000 H       1  UNL1        0.0236
     72 H          11.5791    2.1209    0.0000 H       1  UNL1        0.0236
     73 H          10.5352    0.3288    0.0000 H       1  UNL1        0.0236
     74 H          11.3813    0.0986    0.0000 H       1  UNL1        0.0236
     75 H          11.6115    0.9447    0.0000 H       1  UNL1        0.0236
     76 H           4.9032    0.9938    0.0000 H       1  UNL1        0.0233
     77 H           4.2952    1.6256    0.0000 H       1  UNL1        0.0233
     78 H           3.6634    1.0177    0.0000 H       1  UNL1        0.0233
     79 H           3.3666    0.6535    0.0000 H       1  UNL1        0.0257
     80 H           2.5224    0.8902    0.0000 H       1  UNL1        0.0257
     81 H           2.2857    0.0459    0.0000 H       1  UNL1        0.0257
     82 H          11.4384    3.7130    0.0000 H       1  UNL1        0.2098
     83 H           2.0000   -1.0438    0.0000 H       1  UNL1        0.2102
     84 H           4.3005   -3.7130    0.0000 H       1  UNL1        0.2951
@<TRIPOS>BOND
     1    26     1    1
     2     1    82    1
     3    27     2    1
     4     2    83    1
     5     3    30    1
     6     3    84    1
     7     4    30    2
     8     5     6    1
     9     5     7    1
    10     5    12    1
    11     5    22    1
    12     6     8    1
    13     6    16    1
    14     6    23    1
    15     7     9    1
    16     7    13    1
    17     7    35    1
    18     8    10    1
    19     8    15    1
    20     8    36    1
    21     9    11    1
    22     9    21    1
    23     9    25    1
    24    10    14    1
    25    10    20    1
    26    10    37    1
    27    11    17    1
    28    11    19    1
    29    11    38    1
    30    12    17    1
    31    12    39    1
    32    12    40    1
    33    13    15    1
    34    13    41    1
    35    13    42    1
    36    14    18    1
    37    14    24    1
    38    14    30    1
    39    15    43    1
    40    15    44    1
    41    16    18    1
    42    16    45    1
    43    16    46    1
    44    17    47    1
    45    17    48    1
    46    18    49    1
    47    18    50    1
    48    19    26    1
    49    19    31    1
    50    19    32    1
    51    20    27    1
    52    20    33    1
    53    20    51    1
    54    21    28    1
    55    21    52    1
    56    21    53    1
    57    22    54    1
    58    22    55    1
    59    22    56    1
    60    23    57    1
    61    23    58    1
    62    23    59    1
    63    24    29    1
    64    24    60    1
    65    24    61    1
    66    25    62    1
    67    25    63    1
    68    25    64    1
    69    26    28    1
    70    26    65    1
    71    27    29    1
    72    27    34    1
    73    28    66    1
    74    28    67    1
    75    29    68    1
    76    29    69    1
    77    31    70    1
    78    31    71    1
    79    31    72    1
    80    32    73    1
    81    32    74    1
    82    32    75    1
    83    33    76    1
    84    33    77    1
    85    33    78    1
    86    34    79    1
    87    34    80    1
    88    34    81    1
