@<TRIPOS>MOLECULE
IMPHY000940
 77 81 0 0 0
SMALL
GASTEIGER

@<TRIPOS>ATOM
      1 O           2.5381   -3.6815    0.0000 O.3     1  UNL1       -0.3918
      2 C           6.0682   -1.6573    0.0000 C.3     1  UNL1       -0.0194
      3 C           5.2022   -2.1573    0.0000 C.3     1  UNL1       -0.0198
      4 C           5.2020   -1.1569    0.0000 C.3     1  UNL1       -0.0401
      5 C           6.9343   -2.1573    0.0000 C.3     1  UNL1       -0.0289
      6 C           7.8443   -1.6505    0.0000 C.3     1  UNL1       -0.0231
      7 C           5.2022   -3.1573    0.0000 C.3     1  UNL1       -0.0325
      8 C           6.0522   -0.6158    0.0000 C.3     1  UNL1       -0.0460
      9 C           7.8523   -0.6089    0.0000 C.3     1  UNL1       -0.0233
     10 C           4.3083   -1.6227    0.0000 C.3     1  UNL1       -0.0443
     11 C           6.9343   -3.1573    0.0000 C.3     1  UNL1       -0.0489
     12 C           6.9502   -0.0881    0.0000 C.3     1  UNL1       -0.0463
     13 C           6.0682   -3.6573    0.0000 C.3     1  UNL1       -0.0493
     14 C           8.8403   -0.2991    0.0000 C.3     1  UNL1       -0.0325
     15 C           8.8274   -1.9755    0.0000 C.3     1  UNL1       -0.0466
     16 C           4.3083   -3.6920    0.0000 C.3     1  UNL1       -0.0235
     17 C           9.4418   -1.1420    0.0000 C.3     1  UNL1       -0.0489
     18 C           3.4022   -2.1365    0.0000 C.3     1  UNL1       -0.0263
     19 C           7.8366   -2.6505    0.0000 C.3     1  UNL1       -0.0588
     20 C           3.4022   -3.1781    0.0000 C.3     1  UNL1        0.0555
     21 C           7.8600    0.3911    0.0000 C.3     1  UNL1       -0.0588
     22 C           9.1583    0.6490    0.0000 C.3     1  UNL1       -0.0405
     23 C          10.1384    0.8477    0.0000 C.3     1  UNL1       -0.0502
     24 C           8.4962    1.3985    0.0000 C.3     1  UNL1       -0.0621
     25 C          10.4564    1.7958    0.0000 C.3     1  UNL1       -0.0526
     26 C          11.4364    1.9945    0.0000 C.3     1  UNL1       -0.0507
     27 C          11.7544    2.9426    0.0000 C.3     1  UNL1       -0.0467
     28 C          12.7345    3.1412    0.0000 C.3     1  UNL1       -0.0627
     29 C          11.0923    3.6920    0.0000 C.3     1  UNL1       -0.0627
     30 H           5.4141   -0.5743    0.0000 H       1  UNL1        0.0276
     31 H           4.5914   -1.0493    0.0000 H       1  UNL1        0.0276
     32 H           7.6671   -2.5880    0.0000 H       1  UNL1        0.0312
     33 H           5.2088   -4.0073    0.0000 H       1  UNL1        0.0307
     34 H           5.8342   -0.0354    0.0000 H       1  UNL1        0.0271
     35 H           5.4431   -0.7313    0.0000 H       1  UNL1        0.0271
     36 H           4.7129   -1.1529    0.0000 H       1  UNL1        0.0272
     37 H           3.9147   -1.1436    0.0000 H       1  UNL1        0.0272
     38 H           7.1463   -3.7399    0.0000 H       1  UNL1        0.0268
     39 H           7.5449   -3.0497    0.0000 H       1  UNL1        0.0268
     40 H           7.3475    0.3879    0.0000 H       1  UNL1        0.0271
     41 H           6.5493    0.3848    0.0000 H       1  UNL1        0.0271
     42 H           5.6697   -4.1323    0.0000 H       1  UNL1        0.0268
     43 H           6.4668   -4.1323    0.0000 H       1  UNL1        0.0268
     44 H           9.6810   -0.1737    0.0000 H       1  UNL1        0.0309
     45 H           8.5720   -2.5404    0.0000 H       1  UNL1        0.0271
     46 H           9.3624   -2.2888    0.0000 H       1  UNL1        0.0271
     47 H           3.9147   -4.1710    0.0000 H       1  UNL1        0.0293
     48 H           4.7129   -4.1618    0.0000 H       1  UNL1        0.0293
     49 H           9.8994   -1.5602    0.0000 H       1  UNL1        0.0268
     50 H           9.9058   -0.7308    0.0000 H       1  UNL1        0.0268
     51 H           3.1932   -1.5528    0.0000 H       1  UNL1        0.0290
     52 H           2.7914   -2.2426    0.0000 H       1  UNL1        0.0290
     53 H           7.2166   -2.6457    0.0000 H       1  UNL1        0.0235
     54 H           7.8318   -3.2704    0.0000 H       1  UNL1        0.0235
     55 H           8.4566   -2.6552    0.0000 H       1  UNL1        0.0235
     56 H           3.4058   -3.7981    0.0000 H       1  UNL1        0.0593
     57 H           8.4800    0.3863    0.0000 H       1  UNL1        0.0235
     58 H           7.8648    1.0111    0.0000 H       1  UNL1        0.0235
     59 H           7.2400    0.3959    0.0000 H       1  UNL1        0.0235
     60 H           9.3555    1.2368    0.0000 H       1  UNL1        0.0301
     61 H          10.1542    0.2279    0.0000 H       1  UNL1        0.0268
     62 H          10.7515    0.7556    0.0000 H       1  UNL1        0.0268
     63 H           8.9609    1.8090    0.0000 H       1  UNL1        0.0233
     64 H           8.0857    1.8631    0.0000 H       1  UNL1        0.0233
     65 H           8.0316    0.9880    0.0000 H       1  UNL1        0.0233
     66 H           2.0000   -3.3736    0.0000 H       1  UNL1        0.2098
     67 H          10.4406    2.4156    0.0000 H       1  UNL1        0.0265
     68 H           9.8432    1.8879    0.0000 H       1  UNL1        0.0265
     69 H          11.4522    1.3747    0.0000 H       1  UNL1        0.0268
     70 H          12.0496    1.9024    0.0000 H       1  UNL1        0.0268
     71 H          12.1649    2.4779    0.0000 H       1  UNL1        0.0295
     72 H          11.5570    4.1025    0.0000 H       1  UNL1        0.0232
     73 H          10.6818    4.1566    0.0000 H       1  UNL1        0.0232
     74 H          12.8577    2.5336    0.0000 H       1  UNL1        0.0232
     75 H          13.3421    3.2644    0.0000 H       1  UNL1        0.0232
     76 H          12.6113    3.7489    0.0000 H       1  UNL1        0.0232
     77 H          10.6277    3.2815    0.0000 H       1  UNL1        0.0232
@<TRIPOS>BOND
     1    20     1    1
     2     1    66    1
     3     2     3    1
     4     2     4    1
     5     2     5    1
     6     2     8    1
     7     3     4    1
     8     3     7    1
     9     3    10    1
    10     4    30    1
    11     4    31    1
    12     5     6    1
    13     5    11    1
    14     5    32    1
    15     6     9    1
    16     6    15    1
    17     6    19    1
    18     7    13    1
    19     7    16    1
    20     7    33    1
    21     8    12    1
    22     8    34    1
    23     8    35    1
    24     9    12    1
    25     9    14    1
    26     9    21    1
    27    10    18    1
    28    10    36    1
    29    10    37    1
    30    11    13    1
    31    11    38    1
    32    11    39    1
    33    12    40    1
    34    12    41    1
    35    13    42    1
    36    13    43    1
    37    14    17    1
    38    14    22    1
    39    14    44    1
    40    15    17    1
    41    15    45    1
    42    15    46    1
    43    16    20    1
    44    16    47    1
    45    16    48    1
    46    17    49    1
    47    17    50    1
    48    18    20    1
    49    18    51    1
    50    18    52    1
    51    19    53    1
    52    19    54    1
    53    19    55    1
    54    20    56    1
    55    21    57    1
    56    21    58    1
    57    21    59    1
    58    22    23    1
    59    22    24    1
    60    22    60    1
    61    23    25    1
    62    23    61    1
    63    23    62    1
    64    24    63    1
    65    24    64    1
    66    24    65    1
    67    25    26    1
    68    25    67    1
    69    25    68    1
    70    26    27    1
    71    26    69    1
    72    26    70    1
    73    27    28    1
    74    27    29    1
    75    27    71    1
    76    28    74    1
    77    28    75    1
    78    28    76    1
    79    29    72    1
    80    29    73    1
    81    29    77    1
