@<TRIPOS>MOLECULE
IMPHY010104
 67 71 0 0 0
SMALL
GASTEIGER

@<TRIPOS>ATOM
      1 O           9.7082   -1.5104    0.0000 O.3     1  UNL1       -0.3580
      2 O           9.0532    1.1713    0.0000 O.3     1  UNL1       -0.4545
      3 O           5.9670   -1.0741    0.0000 O.2     1  UNL1       -0.4709
      4 O           6.8671   -2.5984    0.0000 O.3     1  UNL1       -0.3095
      5 O           8.5136   -3.1144    0.0000 O.3     1  UNL1       -0.3921
      6 O           5.1350   -2.5984    0.0000 O.3     1  UNL1       -0.3404
      7 O          10.6942    0.6170    0.0000 O.2     1  UNL1       -0.2449
      8 O           6.8671   -4.5984    0.0000 O.3     1  UNL1       -0.3841
      9 O           5.1350   -5.5984    0.0000 O.3     1  UNL1       -0.3864
     10 O           3.4030   -4.5984    0.0000 O.3     1  UNL1       -0.3865
     11 O           2.5369   -3.0984    0.0000 O.3     1  UNL1       -0.3924
     12 O          12.6347    3.6559    0.0000 O.3     1  UNL1       -0.4914
     13 O          11.3137    5.1575    0.0000 O.3     1  UNL1       -0.4915
     14 C           8.7145   -1.3941    0.0000 C.3     1  UNL1        0.1316
     15 C           9.3116   -0.5919    0.0000 C.3     1  UNL1        0.1284
     16 C           7.7671   -1.0741    0.0000 C.3     1  UNL1        0.0652
     17 C           7.7787   -0.0741    0.0000 C.3     1  UNL1        0.0312
     18 C           8.7333    0.2239    0.0000 C.3     1  UNL1        0.1390
     19 C           8.1174   -2.1962    0.0000 C.3     1  UNL1        0.0763
     20 C           6.8671   -1.5984    0.0000 C.3     1  UNL1        0.2097
     21 C           6.8910    0.4708    0.0000 C.2     1  UNL1       -0.0423
     22 C           5.9790   -0.0325    0.0000 C.2     1  UNL1        0.0843
     23 C           6.0010   -3.0984    0.0000 C.3     1  UNL1        0.1918
     24 C          10.0337    1.3679    0.0000 C.2     1  UNL1        0.3397
     25 C           6.0010   -4.0984    0.0000 C.3     1  UNL1        0.1342
     26 C           5.1350   -4.5984    0.0000 C.3     1  UNL1        0.1141
     27 C           4.2690   -3.0984    0.0000 C.3     1  UNL1        0.1130
     28 C           4.2690   -4.0984    0.0000 C.3     1  UNL1        0.1119
     29 C          10.3537    2.3153    0.0000 C.ar    1  UNL1        0.0627
     30 C           3.4030   -2.5984    0.0000 C.3     1  UNL1        0.0730
     31 C          11.3342    2.5119    0.0000 C.ar    1  UNL1       -0.0023
     32 C           9.6932    3.0661    0.0000 C.ar    1  UNL1       -0.0441
     33 C          11.6542    3.4593    0.0000 C.ar    1  UNL1        0.1623
     34 C          10.0132    4.0135    0.0000 C.ar    1  UNL1       -0.0155
     35 C          10.9937    4.2101    0.0000 C.ar    1  UNL1        0.1615
     36 C          13.2952    2.9050    0.0000 C.3     1  UNL1        0.0790
     37 C          10.6532    5.9084    0.0000 C.3     1  UNL1        0.0790
     38 H          10.0526   -0.1754    0.0000 H       1  UNL1        0.0663
     39 H           7.8527   -1.9198    0.0000 H       1  UNL1        0.0398
     40 H           7.8838    0.7693    0.0000 H       1  UNL1        0.0386
     41 H           9.3467    0.3138    0.0000 H       1  UNL1        0.0767
     42 H           7.6919   -1.7453    0.0000 H       1  UNL1        0.0587
     43 H           7.5995   -2.5370    0.0000 H       1  UNL1        0.0587
     44 H           7.4046   -1.9073    0.0000 H       1  UNL1        0.1060
     45 H           6.9053    1.0906    0.0000 H       1  UNL1        0.0606
     46 H           5.4470    0.2857    0.0000 H       1  UNL1        0.1021
     47 H           9.1294   -3.1864    0.0000 H       1  UNL1        0.2095
     48 H           6.0010   -2.4784    0.0000 H       1  UNL1        0.0939
     49 H           6.0010   -4.7184    0.0000 H       1  UNL1        0.0671
     50 H           4.5981   -4.9084    0.0000 H       1  UNL1        0.0648
     51 H           4.2690   -2.4784    0.0000 H       1  UNL1        0.0647
     52 H           3.7320   -3.7884    0.0000 H       1  UNL1        0.0647
     53 H           6.8671   -5.2184    0.0000 H       1  UNL1        0.2101
     54 H           3.8015   -2.1234    0.0000 H       1  UNL1        0.0584
     55 H           3.0044   -2.1234    0.0000 H       1  UNL1        0.0584
     56 H          11.7437    2.0464    0.0000 H       1  UNL1        0.0663
     57 H           9.0853    2.9442    0.0000 H       1  UNL1        0.0627
     58 H           4.5981   -5.9084    0.0000 H       1  UNL1        0.2100
     59 H           3.4030   -5.2184    0.0000 H       1  UNL1        0.2100
     60 H           9.6037    4.4790    0.0000 H       1  UNL1        0.0655
     61 H           2.0000   -2.7884    0.0000 H       1  UNL1        0.2095
     62 H          12.8297    2.4955    0.0000 H       1  UNL1        0.0660
     63 H          13.7047    2.4395    0.0000 H       1  UNL1        0.0660
     64 H          13.7607    3.3146    0.0000 H       1  UNL1        0.0660
     65 H          11.1187    6.3179    0.0000 H       1  UNL1        0.0660
     66 H          10.2437    6.3739    0.0000 H       1  UNL1        0.0660
     67 H          10.1877    5.4989    0.0000 H       1  UNL1        0.0660
@<TRIPOS>BOND
     1     1    14    1
     2     1    15    1
     3    18     2    1
     4     2    24    1
     5     3    20    1
     6     3    22    1
     7    20     4    1
     8    23     4    1
     9     5    19    1
    10     5    47    1
    11     6    23    1
    12     6    27    1
    13     7    24    2
    14    25     8    1
    15     8    53    1
    16    26     9    1
    17     9    58    1
    18    28    10    1
    19    10    59    1
    20    11    30    1
    21    11    61    1
    22    12    33    1
    23    12    36    1
    24    13    35    1
    25    13    37    1
    26    14    15    1
    27    14    16    1
    28    14    19    1
    29    15    18    1
    30    15    38    1
    31    16    17    1
    32    16    20    1
    33    16    39    1
    34    17    18    1
    35    17    21    1
    36    17    40    1
    37    18    41    1
    38    19    42    1
    39    19    43    1
    40    20    44    1
    41    21    22    2
    42    21    45    1
    43    22    46    1
    44    23    25    1
    45    23    48    1
    46    24    29    1
    47    25    26    1
    48    25    49    1
    49    26    28    1
    50    26    50    1
    51    27    28    1
    52    27    30    1
    53    27    51    1
    54    28    52    1
    55    29    31   ar
    56    29    32   ar
    57    30    54    1
    58    30    55    1
    59    31    33   ar
    60    31    56    1
    61    32    34   ar
    62    32    57    1
    63    33    35   ar
    64    34    35   ar
    65    34    60    1
    66    36    62    1
    67    36    63    1
    68    36    64    1
    69    37    65    1
    70    37    66    1
    71    37    67    1
