@<TRIPOS>MOLECULE
IMPHY010698
 25 28 0 0 0
SMALL
GASTEIGER

@<TRIPOS>ATOM
      1 C           0.0000   -2.4750    0.0000 C.3     1  UNL1        0.2528
      2 O           0.0000   -1.6500    0.0000 O.3     1  UNL1       -0.4653
      3 C           0.7145   -1.2375    0.0000 C.ar    1  UNL1        0.2119
      4 C           0.7145   -0.4125    0.0000 C.ar    1  UNL1        0.1822
      5 O           1.4289    0.0000    0.0000 O.2     1  UNL1       -0.4500
      6 C           2.1434   -0.4125    0.0000 C.ar    1  UNL1        0.1549
      7 C           2.8579    0.0000    0.0000 C.ar    1  UNL1        0.0780
      8 C           3.5724   -0.4125    0.0000 C.ar    1  UNL1        0.1827
      9 O           4.3570   -0.1576    0.0000 O.3     1  UNL1       -0.4344
     10 C           4.8419   -0.8250    0.0000 C.3     1  UNL1        0.4295
     11 O           4.3570   -1.4924    0.0000 O.3     1  UNL1       -0.4313
     12 C           3.5724   -1.2375    0.0000 C.ar    1  UNL1        0.2153
     13 C           2.8579   -1.6500    0.0000 C.ar    1  UNL1        0.2385
     14 O           2.8579   -2.4750    0.0000 O.3     1  UNL1       -0.2830
     15 C           2.1434   -1.2375    0.0000 C.ar    1  UNL1        0.1187
     16 C           1.4289   -1.6500    0.0000 C.ar    1  UNL1        0.2384
     17 O           1.4289   -2.4750    0.0000 O.2     1  UNL1       -0.2830
     18 C           0.0000    0.0000    0.0000 C.ar    1  UNL1        0.0411
     19 C          -0.7145   -0.4125    0.0000 C.ar    1  UNL1        0.0066
     20 C          -1.4289    0.0000    0.0000 C.ar    1  UNL1        0.0455
     21 C          -1.4289    0.8250    0.0000 C.ar    1  UNL1        0.2343
     22 O          -2.1434    1.2375    0.0000 O.3     1  UNL1       -0.2831
     23 C          -0.7145    1.2375    0.0000 C.ar    1  UNL1        0.2344
     24 O          -0.7145    2.0625    0.0000 O.3     1  UNL1       -0.2831
     25 C           0.0000    0.8250    0.0000 C.ar    1  UNL1        0.0485
@<TRIPOS>BOND
     1     1     2    1
     2     2     3    1
     3     3     4   ar
     4     3    16   ar
     5     4     5   ar
     6     4    18    1
     7     5     6   ar
     8     6     7   ar
     9     6    15   ar
    10     7     8   ar
    11     8     9    1
    12     8    12   ar
    13     9    10    1
    14    10    11    1
    15    11    12    1
    16    12    13   ar
    17    13    14    1
    18    13    15   ar
    19    15    16   ar
    20    16    17    2
    21    18    19   ar
    22    18    25   ar
    23    19    20   ar
    24    20    21   ar
    25    21    22    1
    26    21    23   ar
    27    23    24    1
    28    23    25   ar
