@<TRIPOS>MOLECULE
IMPHY008918
 37 40 0 0 0
SMALL
GASTEIGER

@<TRIPOS>ATOM
      1 O           2.5836    0.5207    0.0000 O.3     1  UNL1       -0.4520
      2 O           2.5836    2.1302    0.0000 O.3     1  UNL1       -0.4526
      3 O           6.1541   -2.8254    0.0000 O.3     1  UNL1       -0.4945
      4 O           6.1279    3.3254    0.0000 O.3     1  UNL1       -0.4644
      5 O           6.9939    1.8254    0.0000 O.2     1  UNL1       -0.2449
      6 C           4.3958    0.3254    0.0000 C.ar    1  UNL1        0.0362
      7 C           5.2619    0.8254    0.0000 C.ar    1  UNL1        0.0004
      8 C           4.3798   -0.7161    0.0000 C.ar    1  UNL1       -0.0030
      9 C           3.5298    0.8254    0.0000 C.ar    1  UNL1        0.1745
     10 C           5.2778   -1.2438    0.0000 C.ar    1  UNL1        0.0245
     11 C           5.2619    1.8254    0.0000 C.ar    1  UNL1        0.0704
     12 C           3.5298    1.8254    0.0000 C.ar    1  UNL1        0.1677
     13 C           6.1719    0.3186    0.0000 C.ar    1  UNL1       -0.0524
     14 C           4.3958    2.3254    0.0000 C.ar    1  UNL1       -0.0016
     15 C           6.1799   -0.7230    0.0000 C.ar    1  UNL1       -0.0499
     16 C           3.4279   -1.2367    0.0000 C.ar    1  UNL1       -0.0531
     17 C           5.2862   -2.3288    0.0000 C.ar    1  UNL1        0.1278
     18 C           2.0000    1.3254    0.0000 C.3     1  UNL1        0.2333
     19 C           3.4111   -2.3216    0.0000 C.ar    1  UNL1       -0.0577
     20 C           4.3466   -2.8713    0.0000 C.ar    1  UNL1       -0.0193
     21 C           6.1279    2.3254    0.0000 C.2     1  UNL1        0.3396
     22 C           6.1580   -3.8254    0.0000 C.3     1  UNL1        0.0788
     23 C           6.9939    3.8254    0.0000 C.3     1  UNL1        0.0820
     24 H           6.7052    0.6348    0.0000 H       1  UNL1        0.0624
     25 H           4.3958    2.9454    0.0000 H       1  UNL1        0.0664
     26 H           6.7180   -1.0309    0.0000 H       1  UNL1        0.0625
     27 H           2.8970   -0.9164    0.0000 H       1  UNL1        0.0624
     28 H           1.5391    1.7402    0.0000 H       1  UNL1        0.1166
     29 H           1.5391    0.9107    0.0000 H       1  UNL1        0.1166
     30 H           2.8707   -2.6253    0.0000 H       1  UNL1        0.0619
     31 H           4.3442   -3.4913    0.0000 H       1  UNL1        0.0654
     32 H           5.5380   -3.8278    0.0000 H       1  UNL1        0.0660
     33 H           6.1604   -4.4454    0.0000 H       1  UNL1        0.0660
     34 H           6.7780   -3.8230    0.0000 H       1  UNL1        0.0660
     35 H           7.3039    3.2885    0.0000 H       1  UNL1        0.0661
     36 H           7.5309    4.1354    0.0000 H       1  UNL1        0.0661
     37 H           6.6839    4.3624    0.0000 H       1  UNL1        0.0661
@<TRIPOS>BOND
     1     1     9    1
     2     1    18    1
     3     2    12    1
     4     2    18    1
     5     3    17    1
     6     3    22    1
     7     4    21    1
     8     4    23    1
     9     5    21    2
    10     6     7   ar
    11     6     8   ar
    12     6     9   ar
    13     7    11   ar
    14     7    13   ar
    15     8    10   ar
    16     8    16   ar
    17     9    12   ar
    18    10    15   ar
    19    10    17   ar
    20    11    14   ar
    21    11    21    1
    22    12    14   ar
    23    13    15   ar
    24    13    24    1
    25    14    25    1
    26    15    26    1
    27    16    19   ar
    28    16    27    1
    29    17    20   ar
    30    18    28    1
    31    18    29    1
    32    19    20   ar
    33    19    30    1
    34    20    31    1
    35    22    32    1
    36    22    33    1
    37    22    34    1
    38    23    35    1
    39    23    36    1
    40    23    37    1
