@<TRIPOS>MOLECULE
IMPHY003483
 19 18 0 0 0
SMALL
GASTEIGER

@<TRIPOS>ATOM
      1 O           2.0000   -0.0600    0.0000 O.2     1  UNL1       -0.3008
      2 C           4.5981    0.4400    0.0000 C.3     1  UNL1       -0.0443
      3 C           3.7320   -0.0600    0.0000 C.3     1  UNL1        0.0116
      4 C           5.4641   -0.0600    0.0000 C.3     1  UNL1       -0.0553
      5 C           3.7320   -1.0600    0.0000 C.3     1  UNL1       -0.0560
      6 C           6.3301    0.4400    0.0000 C.3     1  UNL1       -0.0653
      7 C           2.8660    0.4400    0.0000 C.2     1  UNL1        0.1231
      8 H           4.9966    0.9149    0.0000 H       1  UNL1        0.0272
      9 H           4.1996    0.9149    0.0000 H       1  UNL1        0.0272
     10 H           3.7320    0.7900    0.0000 H       1  UNL1        0.0372
     11 H           5.0656   -0.5349    0.0000 H       1  UNL1        0.0263
     12 H           5.8626   -0.5349    0.0000 H       1  UNL1        0.0263
     13 H           3.1120   -1.0600    0.0000 H       1  UNL1        0.0236
     14 H           3.7320   -1.6800    0.0000 H       1  UNL1        0.0236
     15 H           4.3520   -1.0600    0.0000 H       1  UNL1        0.0236
     16 H           6.6401   -0.0969    0.0000 H       1  UNL1        0.0230
     17 H           6.8671    0.7500    0.0000 H       1  UNL1        0.0230
     18 H           6.0201    0.9769    0.0000 H       1  UNL1        0.0230
     19 H           2.8660    1.0600    0.0000 H       1  UNL1        0.1029
@<TRIPOS>BOND
     1     1     7    2
     2     2     3    1
     3     2     4    1
     4     2     8    1
     5     2     9    1
     6     3     5    1
     7     3     7    1
     8     3    10    1
     9     4     6    1
    10     4    11    1
    11     4    12    1
    12     5    13    1
    13     5    14    1
    14     5    15    1
    15     6    16    1
    16     6    17    1
    17     6    18    1
    18     7    19    1
