@<TRIPOS>MOLECULE
IMPHY009765
 35 36 0 0 0
SMALL
GASTEIGER

@<TRIPOS>ATOM
      1 C           2.8660   -0.7500    0.0000 C.3     1  UNL1       -0.0127
      2 C           2.8660   -1.7500    0.0000 C.3     1  UNL1       -0.0399
      3 C           2.0000   -0.2500    0.0000 C.3     1  UNL1       -0.0420
      4 C           3.7320   -0.2500    0.0000 C.ar    1  UNL1       -0.0364
      5 C           2.0000    0.7500    0.0000 C.3     1  UNL1       -0.0271
      6 C           3.7320    0.7500    0.0000 C.ar    1  UNL1       -0.0189
      7 C           2.8660    1.2500    0.0000 C.2     1  UNL1       -0.0470
      8 C           2.0000   -2.2500    0.0000 C.3     1  UNL1       -0.0621
      9 C           3.7320   -2.2500    0.0000 C.3     1  UNL1       -0.0621
     10 C           4.6260   -0.7847    0.0000 C.ar    1  UNL1       -0.0548
     11 C           4.6260    1.2847    0.0000 C.ar    1  UNL1       -0.0538
     12 C           5.5321   -0.2708    0.0000 C.ar    1  UNL1       -0.0501
     13 C           5.5321    0.7708    0.0000 C.ar    1  UNL1       -0.0583
     14 C           2.8660    2.2500    0.0000 C.2     1  UNL1       -0.0949
     15 C           6.3961   -0.7742    0.0000 C.3     1  UNL1       -0.0397
     16 H           2.3291   -1.0600    0.0000 H       1  UNL1        0.0352
     17 H           2.8660   -2.3700    0.0000 H       1  UNL1        0.0301
     18 H           1.3894   -0.1423    0.0000 H       1  UNL1        0.0274
     19 H           1.7880   -0.8326    0.0000 H       1  UNL1        0.0274
     20 H           1.7880    1.3326    0.0000 H       1  UNL1        0.0313
     21 H           1.3894    0.6423    0.0000 H       1  UNL1        0.0313
     22 H           1.6900   -1.7131    0.0000 H       1  UNL1        0.0233
     23 H           1.4631   -2.5600    0.0000 H       1  UNL1        0.0233
     24 H           2.3100   -2.7869    0.0000 H       1  UNL1        0.0233
     25 H           3.4220   -2.7869    0.0000 H       1  UNL1        0.0233
     26 H           4.2690   -2.5600    0.0000 H       1  UNL1        0.0233
     27 H           4.0420   -1.7131    0.0000 H       1  UNL1        0.0233
     28 H           4.6188   -1.4046    0.0000 H       1  UNL1        0.0623
     29 H           4.6188    1.9046    0.0000 H       1  UNL1        0.0624
     30 H           6.0678    1.0829    0.0000 H       1  UNL1        0.0620
     31 H           3.4030    2.5600    0.0000 H       1  UNL1        0.0538
     32 H           2.3291    2.5600    0.0000 H       1  UNL1        0.0538
     33 H           6.0841   -1.3099    0.0000 H       1  UNL1        0.0278
     34 H           6.9319   -1.0862    0.0000 H       1  UNL1        0.0278
     35 H           6.7082   -0.2384    0.0000 H       1  UNL1        0.0278
@<TRIPOS>BOND
     1     1     2    1
     2     1     3    1
     3     1     4    1
     4     1    16    1
     5     2     8    1
     6     2     9    1
     7     2    17    1
     8     3     5    1
     9     3    18    1
    10     3    19    1
    11     4     6   ar
    12     4    10   ar
    13     5     7    1
    14     5    20    1
    15     5    21    1
    16     6     7    1
    17     6    11   ar
    18     7    14    2
    19     8    22    1
    20     8    23    1
    21     8    24    1
    22     9    25    1
    23     9    26    1
    24     9    27    1
    25    10    12   ar
    26    10    28    1
    27    11    13   ar
    28    11    29    1
    29    12    13   ar
    30    12    15    1
    31    13    30    1
    32    14    31    1
    33    14    32    1
    34    15    33    1
    35    15    34    1
    36    15    35    1
