@<TRIPOS>MOLECULE
IMPHY003584
 59 61 0 0 0
SMALL
GASTEIGER

@<TRIPOS>ATOM
      1 O           3.9057   -0.3476    0.0000 O.3     1  UNL1       -0.3873
      2 O           7.2622    2.6613    0.0000 O.3     1  UNL1       -0.4610
      3 O           2.0000    2.6372    0.0000 O.2     1  UNL1       -0.2970
      4 O           8.1340    1.1647    0.0000 O.2     1  UNL1       -0.2512
      5 O           2.8956   -3.5436    0.0000 O.2     1  UNL1       -0.4708
      6 C           4.5981    1.1372    0.0000 C.3     1  UNL1        0.0013
      7 C           4.5981    2.1372    0.0000 C.3     1  UNL1       -0.0178
      8 C           5.4920    2.6718    0.0000 C.3     1  UNL1        0.0060
      9 C           3.7320    0.6372    0.0000 C.3     1  UNL1        0.0812
     10 C           5.4920    0.6025    0.0000 C.3     1  UNL1       -0.0413
     11 C           6.3981    2.1580    0.0000 C.3     1  UNL1        0.1084
     12 C           3.7320    2.6372    0.0000 C.3     1  UNL1        0.0102
     13 C           2.8660    1.1372    0.0000 C.3     1  UNL1        0.0440
     14 C           6.3981    1.1164    0.0000 C.3     1  UNL1       -0.0146
     15 C           4.9402    0.1975    0.0000 C.3     1  UNL1       -0.0566
     16 C           3.2320   -0.2289    0.0000 C.3     1  UNL1       -0.0187
     17 C           2.8660    2.1372    0.0000 C.2     1  UNL1        0.1392
     18 C           5.9820    3.5436    0.0000 C.3     1  UNL1       -0.0562
     19 C           4.9820    3.5320    0.0000 C.3     1  UNL1       -0.0562
     20 C           2.0000    0.6372    0.0000 C.3     1  UNL1       -0.0530
     21 C           3.7320   -1.0949    0.0000 C.3     1  UNL1       -0.0221
     22 C           3.2320   -1.9609    0.0000 C.ar    1  UNL1       -0.0096
     23 C           8.1301    2.1647    0.0000 C.2     1  UNL1        0.3042
     24 C           2.2375   -2.0654    0.0000 C.ar    1  UNL1       -0.0208
     25 C           3.6388   -2.8744    0.0000 C.ar    1  UNL1        0.0948
     26 C           8.9942    2.6680    0.0000 C.3     1  UNL1        0.0332
     27 C           2.0296   -3.0436    0.0000 C.ar    1  UNL1        0.0919
     28 H           4.5915    2.9872    0.0000 H       1  UNL1        0.0317
     29 H           5.0874    0.1327    0.0000 H       1  UNL1        0.0273
     30 H           5.8856    0.1235    0.0000 H       1  UNL1        0.0273
     31 H           7.1350    1.7344    0.0000 H       1  UNL1        0.0739
     32 H           4.1306    3.1121    0.0000 H       1  UNL1        0.0345
     33 H           3.3335    3.1121    0.0000 H       1  UNL1        0.0345
     34 H           2.8660    0.2872    0.0000 H       1  UNL1        0.0403
     35 H           6.6071    0.5327    0.0000 H       1  UNL1        0.0301
     36 H           7.0089    1.2224    0.0000 H       1  UNL1        0.0301
     37 H           4.3576   -0.0146    0.0000 H       1  UNL1        0.0236
     38 H           5.1523   -0.3851    0.0000 H       1  UNL1        0.0236
     39 H           5.5228    0.4096    0.0000 H       1  UNL1        0.0236
     40 H           2.7571    0.1697    0.0000 H       1  UNL1        0.0296
     41 H           2.7571   -0.6274    0.0000 H       1  UNL1        0.0296
     42 H           6.5225    3.2398    0.0000 H       1  UNL1        0.0236
     43 H           6.2857    4.0841    0.0000 H       1  UNL1        0.0236
     44 H           5.4415    3.8474    0.0000 H       1  UNL1        0.0236
     45 H           5.5154    3.8482    0.0000 H       1  UNL1        0.0236
     46 H           4.6658    4.0653    0.0000 H       1  UNL1        0.0236
     47 H           4.4487    3.2158    0.0000 H       1  UNL1        0.0236
     48 H           1.6900    1.1741    0.0000 H       1  UNL1        0.0237
     49 H           1.4631    0.3272    0.0000 H       1  UNL1        0.0237
     50 H           2.3100    0.1002    0.0000 H       1  UNL1        0.0237
     51 H           4.4883   -0.5597    0.0000 H       1  UNL1        0.2102
     52 H           4.2070   -1.4934    0.0000 H       1  UNL1        0.0315
     53 H           4.2070   -0.6964    0.0000 H       1  UNL1        0.0315
     54 H           1.8227   -1.6047    0.0000 H       1  UNL1        0.0652
     55 H           4.2452   -3.0034    0.0000 H       1  UNL1        0.1032
     56 H           9.3063    2.1323    0.0000 H       1  UNL1        0.0342
     57 H           9.5300    2.9801    0.0000 H       1  UNL1        0.0342
     58 H           8.6822    3.2037    0.0000 H       1  UNL1        0.0342
     59 H           1.4632   -3.2958    0.0000 H       1  UNL1        0.1029
@<TRIPOS>BOND
     1     1     9    1
     2     1    51    1
     3     2    11    1
     4     2    23    1
     5     3    17    2
     6     4    23    2
     7     5    25   ar
     8     5    27   ar
     9     6     7    1
    10     6     9    1
    11     6    10    1
    12     6    15    1
    13     7     8    1
    14     7    12    1
    15     7    28    1
    16     8    11    1
    17     8    18    1
    18     8    19    1
    19     9    13    1
    20     9    16    1
    21    10    14    1
    22    10    29    1
    23    10    30    1
    24    11    14    1
    25    11    31    1
    26    12    17    1
    27    12    32    1
    28    12    33    1
    29    13    17    1
    30    13    20    1
    31    13    34    1
    32    14    35    1
    33    14    36    1
    34    15    37    1
    35    15    38    1
    36    15    39    1
    37    16    21    1
    38    16    40    1
    39    16    41    1
    40    18    42    1
    41    18    43    1
    42    18    44    1
    43    19    45    1
    44    19    46    1
    45    19    47    1
    46    20    48    1
    47    20    49    1
    48    20    50    1
    49    21    22    1
    50    21    52    1
    51    21    53    1
    52    22    24   ar
    53    22    25   ar
    54    23    26    1
    55    24    27   ar
    56    24    54    1
    57    25    55    1
    58    26    56    1
    59    26    57    1
    60    26    58    1
    61    27    59    1
