@<TRIPOS>MOLECULE
IMPHY004860
 51 54 0 0 0
SMALL
GASTEIGER

@<TRIPOS>ATOM
      1 O           7.2764   -0.8047    0.0000 O.3     1  UNL1       -0.3371
      2 O           6.3301    1.5000    0.0000 O.3     1  UNL1       -0.3668
      3 O           6.3301   -1.5000    0.0000 O.3     1  UNL1       -0.3489
      4 O           3.7320   -1.0000    0.0000 O.2     1  UNL1       -0.2922
      5 O          11.0270   -1.6030    0.0000 O.3     1  UNL1       -0.4526
      6 O          11.8318   -0.2092    0.0000 O.3     1  UNL1       -0.4526
      7 C           6.3301    0.5000    0.0000 C.3     1  UNL1        0.1469
      8 C           6.3301   -0.5000    0.0000 C.3     1  UNL1        0.2108
      9 C           7.2764    0.8047    0.0000 C.3     1  UNL1        0.0245
     10 C           7.8600    0.0000    0.0000 C.3     1  UNL1        0.0928
     11 C           5.4641   -1.0000    0.0000 C.3     1  UNL1        0.0675
     12 C           5.4641    1.0000    0.0000 C.2     1  UNL1       -0.0403
     13 C           7.5870    1.7552    0.0000 C.3     1  UNL1       -0.0566
     14 C           4.5981    0.5000    0.0000 C.2     1  UNL1       -0.0021
     15 C           8.8600    0.0000    0.0000 C.ar    1  UNL1       -0.0147
     16 C           4.5981   -0.5000    0.0000 C.2     1  UNL1        0.1645
     17 C           3.7320    1.0000    0.0000 C.3     1  UNL1       -0.0066
     18 C           9.3600   -0.8660    0.0000 C.ar    1  UNL1       -0.0105
     19 C           5.4641    2.0000    0.0000 C.3     1  UNL1        0.0378
     20 C           9.3600    0.8660    0.0000 C.ar    1  UNL1       -0.0524
     21 C           7.1962   -2.0000    0.0000 C.3     1  UNL1        0.0398
     22 C          10.3600   -0.8660    0.0000 C.ar    1  UNL1        0.1666
     23 C          10.3600    0.8660    0.0000 C.ar    1  UNL1       -0.0158
     24 C          10.8600    0.0000    0.0000 C.ar    1  UNL1        0.1662
     25 C           2.8660    0.5000    0.0000 C.2     1  UNL1       -0.0867
     26 C          11.9348   -1.1979    0.0000 C.3     1  UNL1        0.2332
     27 C           2.0000    1.0000    0.0000 C.2     1  UNL1       -0.1023
     28 H           6.8389    1.2441    0.0000 H       1  UNL1        0.0359
     29 H           8.1417    0.5523    0.0000 H       1  UNL1        0.0651
     30 H           5.0656   -1.4750    0.0000 H       1  UNL1        0.0399
     31 H           5.8626   -1.4750    0.0000 H       1  UNL1        0.0399
     32 H           5.4641    1.6200    0.0000 H       1  UNL1        0.0606
     33 H           8.1763    1.5626    0.0000 H       1  UNL1        0.0234
     34 H           7.7796    2.3446    0.0000 H       1  UNL1        0.0234
     35 H           6.9977    1.9479    0.0000 H       1  UNL1        0.0234
     36 H           4.1306    1.4750    0.0000 H       1  UNL1        0.0356
     37 H           3.3335    1.4750    0.0000 H       1  UNL1        0.0356
     38 H           9.0500   -1.4030    0.0000 H       1  UNL1        0.0659
     39 H           5.7741    2.5369    0.0000 H       1  UNL1        0.0524
     40 H           4.9272    2.3100    0.0000 H       1  UNL1        0.0524
     41 H           5.1541    1.4631    0.0000 H       1  UNL1        0.0524
     42 H           9.0500    1.4030    0.0000 H       1  UNL1        0.0622
     43 H           6.8862   -2.5369    0.0000 H       1  UNL1        0.0525
     44 H           7.7331   -2.3100    0.0000 H       1  UNL1        0.0525
     45 H           7.5062   -1.4631    0.0000 H       1  UNL1        0.0525
     46 H          10.6700    1.4030    0.0000 H       1  UNL1        0.0655
     47 H           2.8660   -0.1200    0.0000 H       1  UNL1        0.0570
     48 H          12.1266   -1.7875    0.0000 H       1  UNL1        0.1166
     49 H          12.5413   -1.0692    0.0000 H       1  UNL1        0.1166
     50 H           2.0000    1.6200    0.0000 H       1  UNL1        0.0532
     51 H           1.4631    0.6900    0.0000 H       1  UNL1        0.0532
@<TRIPOS>BOND
     1     1     8    1
     2     1    10    1
     3     7     2    1
     4     2    19    1
     5     8     3    1
     6     3    21    1
     7     4    16    2
     8     5    22    1
     9     5    26    1
    10     6    24    1
    11     6    26    1
    12     7     8    1
    13     7     9    1
    14     7    12    1
    15     8    11    1
    16     9    10    1
    17     9    13    1
    18     9    28    1
    19    10    15    1
    20    10    29    1
    21    11    16    1
    22    11    30    1
    23    11    31    1
    24    12    14    2
    25    12    32    1
    26    13    33    1
    27    13    34    1
    28    13    35    1
    29    14    16    1
    30    14    17    1
    31    15    18   ar
    32    15    20   ar
    33    17    25    1
    34    17    36    1
    35    17    37    1
    36    18    22   ar
    37    18    38    1
    38    19    39    1
    39    19    40    1
    40    19    41    1
    41    20    23   ar
    42    20    42    1
    43    21    43    1
    44    21    44    1
    45    21    45    1
    46    22    24   ar
    47    23    24   ar
    48    23    46    1
    49    25    27    2
    50    25    47    1
    51    26    48    1
    52    26    49    1
    53    27    50    1
    54    27    51    1
