@<TRIPOS>MOLECULE
IMPHY003255
 177 186 0 0 0
SMALL
GASTEIGER

@<TRIPOS>ATOM
      1 O           6.8671   -2.8147    0.0000 O.3     1  UNL1       -0.3449
      2 O           8.6209    6.4648    0.0000 O.3     1  UNL1       -0.4318
      3 O           9.5042    4.9749    0.0000 O.2     1  UNL1       -0.2501
      4 O           5.1350   -2.8147    0.0000 O.3     1  UNL1       -0.3405
      5 O           6.8671   -4.8147    0.0000 O.3     1  UNL1       -0.3378
      6 O           9.4695    7.9747    0.0000 O.3     1  UNL1       -0.3368
      7 O           5.1350   -5.8147    0.0000 O.3     1  UNL1       -0.3864
      8 O          10.3644    5.4849    0.0000 O.3     1  UNL1       -0.3366
      9 O           3.4030   -4.8147    0.0000 O.3     1  UNL1       -0.3865
     10 O          12.0847    6.5048    0.0000 O.3     1  UNL1       -0.3864
     11 O           6.0010   -6.3147    0.0000 O.3     1  UNL1       -0.3405
     12 O           2.5369   -3.3147    0.0000 O.3     1  UNL1       -0.3924
     13 O          12.0616    8.5047    0.0000 O.3     1  UNL1       -0.3869
     14 O           8.5991   -5.8147    0.0000 O.3     1  UNL1       -0.3841
     15 O          12.0963    5.5049    0.0000 O.3     1  UNL1       -0.3431
     16 O           8.5991   -7.8147    0.0000 O.3     1  UNL1       -0.3864
     17 O           6.8671   -8.8147    0.0000 O.3     1  UNL1       -0.3865
     18 O          10.3875    3.4850    0.0000 O.3     1  UNL1       -0.3841
     19 O          12.1310    2.5051    0.0000 O.3     1  UNL1       -0.3864
     20 O          13.8514    3.5251    0.0000 O.3     1  UNL1       -0.3402
     21 O           5.1350   -8.8147    0.0000 O.3     1  UNL1       -0.3924
     22 O          14.7000    5.0350    0.0000 O.3     1  UNL1       -0.3461
     23 O          15.5949    2.5452    0.0000 O.3     1  UNL1       -0.3841
     24 O          17.3152    3.5651    0.0000 O.3     1  UNL1       -0.3864
     25 O          17.2921    5.5650    0.0000 O.3     1  UNL1       -0.3869
     26 C           7.7681    1.8856    0.0000 C.3     1  UNL1       -0.0194
     27 C           6.9040    1.3822    0.0000 C.3     1  UNL1       -0.0257
     28 C           6.8920    0.3407    0.0000 C.3     1  UNL1       -0.0250
     29 C           7.7643    2.8856    0.0000 C.3     1  UNL1       -0.0051
     30 C           7.7920   -0.1836    0.0000 C.3     1  UNL1       -0.0278
     31 C           8.6801    1.3822    0.0000 C.3     1  UNL1       -0.0463
     32 C           7.8046   -1.2685    0.0000 C.3     1  UNL1       -0.0052
     33 C           8.6921    0.3407    0.0000 C.3     1  UNL1       -0.0486
     34 C           6.8963    3.3822    0.0000 C.2     1  UNL1       -0.0629
     35 C           6.8762    4.4236    0.0000 C.3     1  UNL1       -0.0031
     36 C           6.0361    1.8789    0.0000 C.3     1  UNL1       -0.0306
     37 C           5.9421   -0.1836    0.0000 C.3     1  UNL1       -0.0447
     38 C           8.6723    3.3959    0.0000 C.3     1  UNL1       -0.0424
     39 C           7.7722    4.9549    0.0000 C.3     1  UNL1        0.0744
     40 C           8.7522    2.0630    0.0000 C.3     1  UNL1       -0.0585
     41 C           6.8671   -1.8147    0.0000 C.3     1  UNL1        0.0672
     42 C           8.6763    4.4375    0.0000 C.3     1  UNL1       -0.0359
     43 C           6.0279    0.8440    0.0000 C.3     1  UNL1       -0.0590
     44 C           5.9295   -1.2685    0.0000 C.3     1  UNL1       -0.0255
     45 C           6.0322    2.8789    0.0000 C.2     1  UNL1       -0.0836
     46 C           8.7497    2.7157    0.0000 C.3     1  UNL1       -0.0553
     47 C           5.9223    4.9406    0.0000 C.3     1  UNL1       -0.0403
     48 C           7.7764    6.0399    0.0000 C.3     1  UNL1       -0.0362
     49 C           5.9014    6.0254    0.0000 C.3     1  UNL1       -0.0343
     50 C           8.8046   -1.2608    0.0000 C.3     1  UNL1       -0.0572
     51 C           8.3113   -2.1307    0.0000 C.3     1  UNL1       -0.0572
     52 C           6.8347    6.5787    0.0000 C.3     1  UNL1       -0.0468
     53 C           8.6324    5.4648    0.0000 C.2     1  UNL1        0.3161
     54 C           5.3881    6.8836    0.0000 C.3     1  UNL1       -0.0598
     55 C           4.9015    6.0100    0.0000 C.3     1  UNL1       -0.0598
     56 C           6.0010   -3.3147    0.0000 C.3     1  UNL1        0.1886
     57 C           6.0010   -4.3147    0.0000 C.3     1  UNL1        0.1406
     58 C           9.4810    6.9748    0.0000 C.3     1  UNL1        0.2338
     59 C           5.1350   -4.8147    0.0000 C.3     1  UNL1        0.1144
     60 C           4.2690   -3.3147    0.0000 C.3     1  UNL1        0.1130
     61 C           4.2690   -4.3147    0.0000 C.3     1  UNL1        0.1119
     62 C          10.3528    6.4848    0.0000 C.3     1  UNL1        0.1520
     63 C          11.2130    6.9948    0.0000 C.3     1  UNL1        0.1152
     64 C           3.4030   -2.8147    0.0000 C.3     1  UNL1        0.0730
     65 C           6.8671   -5.8147    0.0000 C.3     1  UNL1        0.1885
     66 C          10.3297    8.4847    0.0000 C.3     1  UNL1        0.0802
     67 C          11.2014    7.9947    0.0000 C.3     1  UNL1        0.1070
     68 C           7.7331   -6.3147    0.0000 C.3     1  UNL1        0.1341
     69 C          11.2361    4.9949    0.0000 C.3     1  UNL1        0.1885
     70 C           7.7331   -7.3147    0.0000 C.3     1  UNL1        0.1141
     71 C           6.0010   -7.3147    0.0000 C.3     1  UNL1        0.1130
     72 C           6.8671   -7.8147    0.0000 C.3     1  UNL1        0.1119
     73 C          11.2477    3.9950    0.0000 C.3     1  UNL1        0.1341
     74 C          12.1194    3.5050    0.0000 C.3     1  UNL1        0.1143
     75 C           5.1350   -7.8147    0.0000 C.3     1  UNL1        0.0730
     76 C          12.9681    5.0150    0.0000 C.3     1  UNL1        0.0877
     77 C          12.9796    4.0150    0.0000 C.3     1  UNL1        0.1160
     78 C          13.8282    5.5249    0.0000 C.3     1  UNL1       -0.0361
     79 C          14.7115    4.0350    0.0000 C.3     1  UNL1        0.1880
     80 C          15.5833    3.5451    0.0000 C.3     1  UNL1        0.1341
     81 C          16.4435    4.0551    0.0000 C.3     1  UNL1        0.1137
     82 C          15.5602    5.5450    0.0000 C.3     1  UNL1        0.0792
     83 C          16.4319    5.0550    0.0000 C.3     1  UNL1        0.1069
     84 H           7.4398    1.0702    0.0000 H       1  UNL1        0.0315
     85 H           8.3314   -0.4895    0.0000 H       1  UNL1        0.0312
     86 H           9.2921    1.2832    0.0000 H       1  UNL1        0.0271
     87 H           8.8824    1.9683    0.0000 H       1  UNL1        0.0271
     88 H           8.9079   -0.2406    0.0000 H       1  UNL1        0.0268
     89 H           9.3017    0.4538    0.0000 H       1  UNL1        0.0268
     90 H           6.3466    4.1013    0.0000 H       1  UNL1        0.0357
     91 H           5.4251    1.9842    0.0000 H       1  UNL1        0.0310
     92 H           5.8263    1.2955    0.0000 H       1  UNL1        0.0310
     93 H           5.7398    0.4024    0.0000 H       1  UNL1        0.0271
     94 H           5.3300   -0.2826    0.0000 H       1  UNL1        0.0271
     95 H           8.8791    2.8114    0.0000 H       1  UNL1        0.0274
     96 H           9.2836    3.4996    0.0000 H       1  UNL1        0.0274
     97 H           8.8623    1.4528    0.0000 H       1  UNL1        0.0235
     98 H           9.3624    2.1730    0.0000 H       1  UNL1        0.0235
     99 H           8.6422    2.6732    0.0000 H       1  UNL1        0.0235
    100 H           7.4046   -2.1236    0.0000 H       1  UNL1        0.0602
    101 H           9.2868    4.3291    0.0000 H       1  UNL1        0.0276
    102 H           8.8876    5.0204    0.0000 H       1  UNL1        0.0276
    103 H           6.3400    1.3797    0.0000 H       1  UNL1        0.0235
    104 H           5.4922    1.1561    0.0000 H       1  UNL1        0.0235
    105 H           5.7158    0.3083    0.0000 H       1  UNL1        0.0235
    106 H           5.3199   -1.1554    0.0000 H       1  UNL1        0.0290
    107 H           5.7137   -1.8498    0.0000 H       1  UNL1        0.0290
    108 H           5.4941    3.1868    0.0000 H       1  UNL1        0.0572
    109 H           8.6444    2.1047    0.0000 H       1  UNL1        0.0238
    110 H           9.3607    2.6104    0.0000 H       1  UNL1        0.0238
    111 H           8.8550    3.3267    0.0000 H       1  UNL1        0.0238
    112 H           5.3095    5.0349    0.0000 H       1  UNL1        0.0276
    113 H           5.7246    4.3530    0.0000 H       1  UNL1        0.0276
    114 H           8.3869    5.9314    0.0000 H       1  UNL1        0.0276
    115 H           7.9877    6.6227    0.0000 H       1  UNL1        0.0276
    116 H           8.8094   -1.8808    0.0000 H       1  UNL1        0.0236
    117 H           9.4246   -1.2561    0.0000 H       1  UNL1        0.0236
    118 H           8.7998   -0.6409    0.0000 H       1  UNL1        0.0236
    119 H           7.7767   -2.4448    0.0000 H       1  UNL1        0.0236
    120 H           8.6254   -2.6652    0.0000 H       1  UNL1        0.0236
    121 H           8.8458   -1.8166    0.0000 H       1  UNL1        0.0236
    122 H           7.2302    7.0562    0.0000 H       1  UNL1        0.0271
    123 H           6.4319    7.0501    0.0000 H       1  UNL1        0.0271
    124 H           4.8920    6.6299    0.0000 H       1  UNL1        0.0235
    125 H           4.2816    6.0004    0.0000 H       1  UNL1        0.0235
    126 H           4.9111    5.3900    0.0000 H       1  UNL1        0.0235
    127 H           5.9202    7.2018    0.0000 H       1  UNL1        0.0235
    128 H           5.0699    7.4157    0.0000 H       1  UNL1        0.0235
    129 H           4.8560    6.5654    0.0000 H       1  UNL1        0.0235
    130 H           6.5380   -3.6247    0.0000 H       1  UNL1        0.0938
    131 H           6.0010   -4.9347    0.0000 H       1  UNL1        0.0675
    132 H           9.4882    6.3548    0.0000 H       1  UNL1        0.1085
    133 H           4.5981   -5.1247    0.0000 H       1  UNL1        0.0648
    134 H           4.2690   -2.6947    0.0000 H       1  UNL1        0.0647
    135 H           3.7320   -4.0047    0.0000 H       1  UNL1        0.0647
    136 H          10.8933    6.1810    0.0000 H       1  UNL1        0.0687
    137 H          11.7463    7.3110    0.0000 H       1  UNL1        0.0648
    138 H           3.8015   -2.3397    0.0000 H       1  UNL1        0.0584
    139 H           3.0044   -2.3397    0.0000 H       1  UNL1        0.0584
    140 H           7.4040   -5.5047    0.0000 H       1  UNL1        0.0938
    141 H          10.7227    8.9642    0.0000 H       1  UNL1        0.0588
    142 H           9.9257    8.9550    0.0000 H       1  UNL1        0.0588
    143 H          11.1943    8.6147    0.0000 H       1  UNL1        0.0643
    144 H           4.5981   -6.1247    0.0000 H       1  UNL1        0.2100
    145 H           3.4030   -5.4347    0.0000 H       1  UNL1        0.2100
    146 H           8.2700   -6.6247    0.0000 H       1  UNL1        0.0671
    147 H          11.2289    5.6149    0.0000 H       1  UNL1        0.0938
    148 H          12.6181    6.8210    0.0000 H       1  UNL1        0.2100
    149 H           2.0000   -3.0047    0.0000 H       1  UNL1        0.2095
    150 H           7.7331   -7.9347    0.0000 H       1  UNL1        0.0648
    151 H          12.0544    9.1247    0.0000 H       1  UNL1        0.2100
    152 H           5.4641   -7.0047    0.0000 H       1  UNL1        0.0647
    153 H           6.3301   -8.1247    0.0000 H       1  UNL1        0.0647
    154 H          10.7072    4.2988    0.0000 H       1  UNL1        0.0671
    155 H           8.5991   -5.1947    0.0000 H       1  UNL1        0.2101
    156 H          11.5861    3.1888    0.0000 H       1  UNL1        0.0648
    157 H           4.9230   -7.2320    0.0000 H       1  UNL1        0.0584
    158 H           4.5244   -7.9223    0.0000 H       1  UNL1        0.0584
    159 H          12.9609    5.6349    0.0000 H       1  UNL1        0.0621
    160 H          13.5129    4.3312    0.0000 H       1  UNL1        0.0650
    161 H           9.1360   -7.5047    0.0000 H       1  UNL1        0.2100
    162 H           7.4040   -9.1247    0.0000 H       1  UNL1        0.2100
    163 H          10.3947    2.8650    0.0000 H       1  UNL1        0.2101
    164 H          14.1444    4.9916    0.0000 H       1  UNL1        0.0255
    165 H          14.3616    5.8411    0.0000 H       1  UNL1        0.0255
    166 H          13.5120    6.0582    0.0000 H       1  UNL1        0.0255
    167 H          12.6715    2.2013    0.0000 H       1  UNL1        0.2100
    168 H           5.6720   -9.1247    0.0000 H       1  UNL1        0.2095
    169 H          14.7187    3.4151    0.0000 H       1  UNL1        0.0937
    170 H          16.1238    3.2413    0.0000 H       1  UNL1        0.0671
    171 H          16.9768    4.3713    0.0000 H       1  UNL1        0.0647
    172 H          15.9532    6.0245    0.0000 H       1  UNL1        0.0587
    173 H          15.1562    6.0153    0.0000 H       1  UNL1        0.0587
    174 H          16.4248    5.6750    0.0000 H       1  UNL1        0.0643
    175 H          16.1353    2.2414    0.0000 H       1  UNL1        0.2101
    176 H          17.8485    3.8813    0.0000 H       1  UNL1        0.2100
    177 H          17.2849    6.1849    0.0000 H       1  UNL1        0.2100
@<TRIPOS>BOND
     1     1    41    1
     2     1    56    1
     3     2    53    1
     4     2    58    1
     5     3    53    2
     6     4    56    1
     7     4    60    1
     8     5    57    1
     9     5    65    1
    10     6    58    1
    11     6    66    1
    12     7    59    1
    13     7   144    1
    14     8    62    1
    15     8    69    1
    16     9    61    1
    17     9   145    1
    18    10    63    1
    19    10   148    1
    20    11    65    1
    21    11    71    1
    22    12    64    1
    23    12   149    1
    24    13    67    1
    25    13   151    1
    26    14    68    1
    27    14   155    1
    28    15    69    1
    29    15    76    1
    30    16    70    1
    31    16   161    1
    32    17    72    1
    33    17   162    1
    34    18    73    1
    35    18   163    1
    36    19    74    1
    37    19   167    1
    38    20    77    1
    39    20    79    1
    40    21    75    1
    41    21   168    1
    42    22    79    1
    43    22    82    1
    44    23    80    1
    45    23   175    1
    46    24    81    1
    47    24   176    1
    48    25    83    1
    49    25   177    1
    50    26    27    1
    51    26    29    1
    52    26    31    1
    53    26    40    1
    54    27    28    1
    55    27    36    1
    56    27    84    1
    57    28    30    1
    58    28    37    1
    59    28    43    1
    60    29    34    1
    61    29    38    1
    62    29    46    1
    63    30    32    1
    64    30    33    1
    65    30    85    1
    66    31    33    1
    67    31    86    1
    68    31    87    1
    69    32    41    1
    70    32    50    1
    71    32    51    1
    72    33    88    1
    73    33    89    1
    74    34    35    1
    75    34    45    2
    76    35    39    1
    77    35    47    1
    78    35    90    1
    79    36    45    1
    80    36    91    1
    81    36    92    1
    82    37    44    1
    83    37    93    1
    84    37    94    1
    85    38    42    1
    86    38    95    1
    87    38    96    1
    88    39    42    1
    89    39    48    1
    90    39    53    1
    91    40    97    1
    92    40    98    1
    93    40    99    1
    94    41    44    1
    95    41   100    1
    96    42   101    1
    97    42   102    1
    98    43   103    1
    99    43   104    1
   100    43   105    1
   101    44   106    1
   102    44   107    1
   103    45   108    1
   104    46   109    1
   105    46   110    1
   106    46   111    1
   107    47    49    1
   108    47   112    1
   109    47   113    1
   110    48    52    1
   111    48   114    1
   112    48   115    1
   113    49    52    1
   114    49    54    1
   115    49    55    1
   116    50   116    1
   117    50   117    1
   118    50   118    1
   119    51   119    1
   120    51   120    1
   121    51   121    1
   122    52   122    1
   123    52   123    1
   124    54   127    1
   125    54   128    1
   126    54   129    1
   127    55   124    1
   128    55   125    1
   129    55   126    1
   130    56    57    1
   131    56   130    1
   132    57    59    1
   133    57   131    1
   134    58    62    1
   135    58   132    1
   136    59    61    1
   137    59   133    1
   138    60    61    1
   139    60    64    1
   140    60   134    1
   141    61   135    1
   142    62    63    1
   143    62   136    1
   144    63    67    1
   145    63   137    1
   146    64   138    1
   147    64   139    1
   148    65    68    1
   149    65   140    1
   150    66    67    1
   151    66   141    1
   152    66   142    1
   153    67   143    1
   154    68    70    1
   155    68   146    1
   156    69    73    1
   157    69   147    1
   158    70    72    1
   159    70   150    1
   160    71    72    1
   161    71    75    1
   162    71   152    1
   163    72   153    1
   164    73    74    1
   165    73   154    1
   166    74    77    1
   167    74   156    1
   168    75   157    1
   169    75   158    1
   170    76    77    1
   171    76    78    1
   172    76   159    1
   173    77   160    1
   174    78   164    1
   175    78   165    1
   176    78   166    1
   177    79    80    1
   178    79   169    1
   179    80    81    1
   180    80   170    1
   181    81    83    1
   182    81   171    1
   183    82    83    1
   184    82   172    1
   185    82   173    1
   186    83   174    1
