@<TRIPOS>MOLECULE
IMPHY001746
 77 81 0 0 0
SMALL
GASTEIGER

@<TRIPOS>ATOM
      1 O           7.4149   -3.8076    0.0000 O.3     1  UNL1       -0.3909
      2 O           2.0000   -3.8285    0.0000 O.2     1  UNL1       -0.2921
      3 O           9.6033    1.7865    0.0000 O.3     1  UNL1       -0.2945
      4 O          10.4096    0.1973    0.0000 O.3     1  UNL1       -0.4311
      5 O           8.3454    3.0487    0.0000 O.3     1  UNL1       -0.4314
      6 O          11.4301    1.5968    0.0000 O.2     1  UNL1       -0.2511
      7 O           9.9936    3.5811    0.0000 O.2     1  UNL1       -0.2511
      8 C           6.5271   -2.2762    0.0000 C.3     1  UNL1        0.0190
      9 C           5.6610   -1.7762    0.0000 C.3     1  UNL1       -0.0204
     10 C           4.7510   -2.2830    0.0000 C.3     1  UNL1       -0.0062
     11 C           7.3931   -0.7762    0.0000 C.3     1  UNL1       -0.0035
     12 C           4.7430   -3.3246    0.0000 C.3     1  UNL1       -0.0174
     13 C           7.3931   -1.7762    0.0000 C.2     1  UNL1       -0.0583
     14 C           6.5431   -3.3177    0.0000 C.3     1  UNL1        0.0649
     15 C           5.6610   -0.7762    0.0000 C.3     1  UNL1       -0.0478
     16 C           5.6451   -3.8454    0.0000 C.3     1  UNL1       -0.0215
     17 C           6.5271   -0.2762    0.0000 C.3     1  UNL1       -0.0430
     18 C           8.3393   -0.4714    0.0000 C.3     1  UNL1       -0.0014
     19 C           3.8076   -3.8743    0.0000 C.3     1  UNL1        0.0311
     20 C           7.3931   -2.7762    0.0000 C.3     1  UNL1       -0.0532
     21 C           8.3393   -2.0809    0.0000 C.2     1  UNL1       -0.0830
     22 C           8.9229   -1.2762    0.0000 C.3     1  UNL1       -0.0269
     23 C           4.7587   -1.2830    0.0000 C.3     1  UNL1       -0.0555
     24 C           3.8242   -1.7189    0.0000 C.2     1  UNL1       -0.0742
     25 C           7.3931    0.2238    0.0000 C.3     1  UNL1       -0.0553
     26 C           2.8680   -3.3318    0.0000 C.2     1  UNL1        0.1617
     27 C           8.6500    0.4791    0.0000 C.2     1  UNL1        0.0041
     28 C           2.8763   -2.2469    0.0000 C.2     1  UNL1       -0.0221
     29 C           3.3109   -4.7423    0.0000 C.3     1  UNL1       -0.0525
     30 C           4.3109   -4.7384    0.0000 C.3     1  UNL1       -0.0525
     31 C           9.6016    0.7865    0.0000 C.3     1  UNL1        0.2313
     32 C           8.0636    1.2891    0.0000 C.2     1  UNL1       -0.0109
     33 C           8.6528    2.0971    0.0000 C.3     1  UNL1        0.2284
     34 C          11.3238    0.6024    0.0000 C.2     1  UNL1        0.3063
     35 C           9.0158    3.7907    0.0000 C.2     1  UNL1        0.3063
     36 C          12.1318    0.0132    0.0000 C.3     1  UNL1        0.0333
     37 C           8.7084    4.7423    0.0000 C.3     1  UNL1        0.0333
     38 H           6.3972   -1.3512    0.0000 H       1  UNL1        0.0318
     39 H           4.7463   -4.1746    0.0000 H       1  UNL1        0.0319
     40 H           6.5491   -3.9376    0.0000 H       1  UNL1        0.0602
     41 H           5.4490   -0.1936    0.0000 H       1  UNL1        0.0269
     42 H           5.0504   -0.8838    0.0000 H       1  UNL1        0.0269
     43 H           5.2478   -4.3214    0.0000 H       1  UNL1        0.0294
     44 H           6.0460   -4.3183    0.0000 H       1  UNL1        0.0294
     45 H           6.9256    0.1988    0.0000 H       1  UNL1        0.0274
     46 H           6.1285    0.1988    0.0000 H       1  UNL1        0.0274
     47 H           8.9518   -0.3752    0.0000 H       1  UNL1        0.0359
     48 H           7.0831   -3.3131    0.0000 H       1  UNL1        0.0239
     49 H           7.9300   -3.0862    0.0000 H       1  UNL1        0.0239
     50 H           7.7031   -2.2392    0.0000 H       1  UNL1        0.0239
     51 H           8.5319   -2.6702    0.0000 H       1  UNL1        0.0572
     52 H           9.3838   -1.6909    0.0000 H       1  UNL1        0.0313
     53 H           9.3838   -0.8614    0.0000 H       1  UNL1        0.0313
     54 H           5.3787   -1.2878    0.0000 H       1  UNL1        0.0238
     55 H           4.7635   -0.6631    0.0000 H       1  UNL1        0.0238
     56 H           4.1388   -1.2783    0.0000 H       1  UNL1        0.0238
     57 H           3.8361   -1.0990    0.0000 H       1  UNL1        0.0579
     58 H           8.0131    0.2238    0.0000 H       1  UNL1        0.0238
     59 H           7.3931    0.8438    0.0000 H       1  UNL1        0.0238
     60 H           6.7731    0.2238    0.0000 H       1  UNL1        0.0238
     61 H           2.3430   -1.9307    0.0000 H       1  UNL1        0.0649
     62 H           3.7752   -5.0505    0.0000 H       1  UNL1        0.0239
     63 H           4.6230   -5.2742    0.0000 H       1  UNL1        0.0239
     64 H           4.8466   -4.4264    0.0000 H       1  UNL1        0.0239
     65 H           2.7728   -4.4344    0.0000 H       1  UNL1        0.0239
     66 H           3.0030   -5.2804    0.0000 H       1  UNL1        0.0239
     67 H           3.8490   -5.0502    0.0000 H       1  UNL1        0.0239
     68 H           7.4220   -4.4276    0.0000 H       1  UNL1        0.2098
     69 H           9.5035    0.1743    0.0000 H       1  UNL1        0.1111
     70 H           7.4436    1.2902    0.0000 H       1  UNL1        0.0635
     71 H           8.0406    2.1952    0.0000 H       1  UNL1        0.1108
     72 H          11.7665   -0.4877    0.0000 H       1  UNL1        0.0342
     73 H          12.6328   -0.3521    0.0000 H       1  UNL1        0.0342
     74 H          12.4971    0.5142    0.0000 H       1  UNL1        0.0342
     75 H           9.2984    4.9328    0.0000 H       1  UNL1        0.0342
     76 H           8.5179    5.3323    0.0000 H       1  UNL1        0.0342
     77 H           8.1184    4.5517    0.0000 H       1  UNL1        0.0342
@<TRIPOS>BOND
     1    14     1    1
     2     1    68    1
     3     2    26    2
     4     3    31    1
     5     3    33    1
     6     4    31    1
     7     4    34    1
     8     5    33    1
     9     5    35    1
    10     6    34    2
    11     7    35    2
    12     8     9    1
    13     8    13    1
    14     8    14    1
    15     8    20    1
    16     9    10    1
    17     9    15    1
    18     9    38    1
    19    10    12    1
    20    10    23    1
    21    10    24    1
    22    11    13    1
    23    11    17    1
    24    11    18    1
    25    11    25    1
    26    12    16    1
    27    12    19    1
    28    12    39    1
    29    13    21    2
    30    14    16    1
    31    14    40    1
    32    15    17    1
    33    15    41    1
    34    15    42    1
    35    16    43    1
    36    16    44    1
    37    17    45    1
    38    17    46    1
    39    18    22    1
    40    18    27    1
    41    18    47    1
    42    19    26    1
    43    19    29    1
    44    19    30    1
    45    20    48    1
    46    20    49    1
    47    20    50    1
    48    21    22    1
    49    21    51    1
    50    22    52    1
    51    22    53    1
    52    23    54    1
    53    23    55    1
    54    23    56    1
    55    24    28    2
    56    24    57    1
    57    25    58    1
    58    25    59    1
    59    25    60    1
    60    26    28    1
    61    27    31    1
    62    27    32    2
    63    28    61    1
    64    29    65    1
    65    29    66    1
    66    29    67    1
    67    30    62    1
    68    30    63    1
    69    30    64    1
    70    31    69    1
    71    32    33    1
    72    32    70    1
    73    33    71    1
    74    34    36    1
    75    35    37    1
    76    36    72    1
    77    36    73    1
    78    36    74    1
    79    37    75    1
    80    37    76    1
    81    37    77    1
