@<TRIPOS>MOLECULE
IMPHY017255
 32 32 0 0 0
SMALL
GASTEIGER

@<TRIPOS>ATOM
      1 O           6.0010    1.2500    0.0000 O.3     1  UNL1       -0.4499
      2 O           6.8671   -0.2500    0.0000 O.2     1  UNL1       -0.2261
      3 O           2.5369   -1.7500    0.0000 O.3     1  UNL1       -0.4771
      4 O           3.4030   -0.2500    0.0000 O.2     1  UNL1       -0.2451
      5 N           5.1350   -0.2500    0.0000 N.am    1  UNL1       -0.2504
      6 C           6.8671    2.7500    0.0000 C.3     1  UNL1       -0.0123
      7 C           6.8671    1.7500    0.0000 C.3     1  UNL1        0.0964
      8 C           7.7331    3.2500    0.0000 C.3     1  UNL1       -0.0596
      9 C           6.0010    3.2500    0.0000 C.3     1  UNL1       -0.0596
     10 C           5.1350   -1.2500    0.0000 C.ar    1  UNL1        0.0504
     11 C           4.2690   -1.7500    0.0000 C.ar    1  UNL1        0.0801
     12 C           6.0010    0.2500    0.0000 C.2     1  UNL1        0.4046
     13 C           6.0010   -1.7500    0.0000 C.ar    1  UNL1       -0.0396
     14 C           4.2690   -2.7500    0.0000 C.ar    1  UNL1       -0.0460
     15 C           6.0010   -2.7500    0.0000 C.ar    1  UNL1       -0.0600
     16 C           5.1350   -3.2500    0.0000 C.ar    1  UNL1       -0.0609
     17 C           3.4030   -1.2500    0.0000 C.2     1  UNL1        0.3386
     18 H           6.3301    2.4400    0.0000 H       1  UNL1        0.0328
     19 H           7.0791    1.1674    0.0000 H       1  UNL1        0.0700
     20 H           7.4776    1.8577    0.0000 H       1  UNL1        0.0700
     21 H           8.0431    2.7131    0.0000 H       1  UNL1        0.0233
     22 H           8.2700    3.5600    0.0000 H       1  UNL1        0.0233
     23 H           7.4231    3.7869    0.0000 H       1  UNL1        0.0233
     24 H           6.3110    3.7869    0.0000 H       1  UNL1        0.0233
     25 H           5.4641    3.5600    0.0000 H       1  UNL1        0.0233
     26 H           5.6910    2.7131    0.0000 H       1  UNL1        0.0233
     27 H           4.5981    0.0600    0.0000 H       1  UNL1        0.1582
     28 H           6.5380   -1.4400    0.0000 H       1  UNL1        0.0636
     29 H           3.7320   -3.0600    0.0000 H       1  UNL1        0.0626
     30 H           6.5380   -3.0600    0.0000 H       1  UNL1        0.0618
     31 H           5.1350   -3.8700    0.0000 H       1  UNL1        0.0618
     32 H           2.0000   -1.4400    0.0000 H       1  UNL1        0.2954
@<TRIPOS>BOND
     1     1     7    1
     2     1    12    1
     3     2    12    2
     4     3    17    1
     5     3    32    1
     6     4    17    2
     7     5    10    1
     8     5    12   am
     9     5    27    1
    10     6     7    1
    11     6     8    1
    12     6     9    1
    13     6    18    1
    14     7    19    1
    15     7    20    1
    16     8    21    1
    17     8    22    1
    18     8    23    1
    19     9    24    1
    20     9    25    1
    21     9    26    1
    22    10    11   ar
    23    10    13   ar
    24    11    14   ar
    25    11    17    1
    26    13    15   ar
    27    13    28    1
    28    14    16   ar
    29    14    29    1
    30    15    16   ar
    31    15    30    1
    32    16    31    1
