@<TRIPOS>MOLECULE
IMPHY012611
 47 46 0 0 0
SMALL
GASTEIGER

@<TRIPOS>ATOM
      1 O           2.5369   -0.7500    0.0000 O.3     1  UNL1       -0.3950
      2 C          12.9292    0.2500    0.0000 C.3     1  UNL1       -0.0530
      3 C          13.7953    0.7500    0.0000 C.3     1  UNL1       -0.0531
      4 C          12.0632    0.7500    0.0000 C.3     1  UNL1       -0.0522
      5 C          14.6613    0.2500    0.0000 C.3     1  UNL1       -0.0533
      6 C          11.1972    0.2500    0.0000 C.3     1  UNL1       -0.0422
      7 C           6.0010   -0.7500    0.0000 C.3     1  UNL1       -0.0521
      8 C          15.5273    0.7500    0.0000 C.3     1  UNL1       -0.0559
      9 C           5.1350   -0.2500    0.0000 C.3     1  UNL1       -0.0510
     10 C           6.8671   -0.2500    0.0000 C.3     1  UNL1       -0.0422
     11 C          10.3312    0.7500    0.0000 C.3     1  UNL1        0.0091
     12 C           4.2690   -0.7500    0.0000 C.3     1  UNL1       -0.0297
     13 C           7.7331   -0.7500    0.0000 C.3     1  UNL1        0.0091
     14 C          16.3933    0.2500    0.0000 C.3     1  UNL1       -0.0653
     15 C           3.4030   -0.2500    0.0000 C.3     1  UNL1        0.0442
     16 C           9.4651    0.2500    0.0000 C.1     1  UNL1       -0.1022
     17 C           8.5991   -0.2500    0.0000 C.1     1  UNL1       -0.1022
     18 H          12.5307   -0.2249    0.0000 H       1  UNL1        0.0265
     19 H          13.3278   -0.2249    0.0000 H       1  UNL1        0.0265
     20 H          14.1938    1.2250    0.0000 H       1  UNL1        0.0265
     21 H          13.3967    1.2250    0.0000 H       1  UNL1        0.0265
     22 H          12.4617    1.2250    0.0000 H       1  UNL1        0.0266
     23 H          11.6647    1.2250    0.0000 H       1  UNL1        0.0266
     24 H          14.2628   -0.2249    0.0000 H       1  UNL1        0.0265
     25 H          15.0598   -0.2249    0.0000 H       1  UNL1        0.0265
     26 H          10.7987   -0.2249    0.0000 H       1  UNL1        0.0274
     27 H          11.5957   -0.2249    0.0000 H       1  UNL1        0.0274
     28 H           5.6025   -1.2250    0.0000 H       1  UNL1        0.0266
     29 H           6.3996   -1.2250    0.0000 H       1  UNL1        0.0266
     30 H           5.5335    0.2249    0.0000 H       1  UNL1        0.0266
     31 H           4.7365    0.2249    0.0000 H       1  UNL1        0.0266
     32 H          15.9258    1.2250    0.0000 H       1  UNL1        0.0263
     33 H          15.1288    1.2250    0.0000 H       1  UNL1        0.0263
     34 H           7.2656    0.2249    0.0000 H       1  UNL1        0.0274
     35 H           6.4685    0.2249    0.0000 H       1  UNL1        0.0274
     36 H          10.7297    1.2250    0.0000 H       1  UNL1        0.0397
     37 H           9.9326    1.2250    0.0000 H       1  UNL1        0.0397
     38 H           3.8705   -1.2250    0.0000 H       1  UNL1        0.0287
     39 H           4.6675   -1.2250    0.0000 H       1  UNL1        0.0287
     40 H           7.3346   -1.2250    0.0000 H       1  UNL1        0.0397
     41 H           8.1316   -1.2250    0.0000 H       1  UNL1        0.0397
     42 H          16.0833   -0.2869    0.0000 H       1  UNL1        0.0230
     43 H          16.9303   -0.0600    0.0000 H       1  UNL1        0.0230
     44 H          16.7033    0.7869    0.0000 H       1  UNL1        0.0230
     45 H           3.8015    0.2249    0.0000 H       1  UNL1        0.0557
     46 H           3.0044    0.2249    0.0000 H       1  UNL1        0.0557
     47 H           2.0000   -0.4400    0.0000 H       1  UNL1        0.2094
@<TRIPOS>BOND
     1     1    15    1
     2     1    47    1
     3     2     3    1
     4     2     4    1
     5     2    18    1
     6     2    19    1
     7     3     5    1
     8     3    20    1
     9     3    21    1
    10     4     6    1
    11     4    22    1
    12     4    23    1
    13     5     8    1
    14     5    24    1
    15     5    25    1
    16     6    11    1
    17     6    26    1
    18     6    27    1
    19     7     9    1
    20     7    10    1
    21     7    28    1
    22     7    29    1
    23     8    14    1
    24     8    32    1
    25     8    33    1
    26     9    12    1
    27     9    30    1
    28     9    31    1
    29    10    13    1
    30    10    34    1
    31    10    35    1
    32    11    16    1
    33    11    36    1
    34    11    37    1
    35    12    15    1
    36    12    38    1
    37    12    39    1
    38    13    17    1
    39    13    40    1
    40    13    41    1
    41    14    42    1
    42    14    43    1
    43    14    44    1
    44    15    45    1
    45    15    46    1
    46    16    17    3
