@<TRIPOS>MOLECULE
IMPHY014493
 38 39 0 0 0
SMALL
GASTEIGER

@<TRIPOS>ATOM
      1 O           2.8660    2.9050    0.0000 O.3     1  UNL1       -0.4913
      2 O           6.3301    2.9050    0.0000 O.3     1  UNL1       -0.4913
      3 O           4.5981    3.9050    0.0000 O.3     1  UNL1       -0.5009
      4 O           2.0000   -3.5950    0.0000 O.3     1  UNL1       -0.5068
      5 C           4.5981   -0.0950    0.0000 C.3     1  UNL1       -0.0235
      6 C           3.7320   -0.5950    0.0000 C.3     1  UNL1       -0.0236
      7 C           4.5981    0.9050    0.0000 C.ar    1  UNL1       -0.0399
      8 C           3.7320   -1.5950    0.0000 C.ar    1  UNL1       -0.0436
      9 C           5.4641    1.4050    0.0000 C.ar    1  UNL1       -0.0129
     10 C           3.7320    1.4050    0.0000 C.ar    1  UNL1       -0.0129
     11 C           3.7320    2.4050    0.0000 C.ar    1  UNL1        0.1652
     12 C           5.4641    2.4050    0.0000 C.ar    1  UNL1        0.1652
     13 C           4.5981    2.9050    0.0000 C.ar    1  UNL1        0.2010
     14 C           2.8660   -2.0950    0.0000 C.ar    1  UNL1       -0.0170
     15 C           4.5981   -2.0950    0.0000 C.ar    1  UNL1       -0.0583
     16 C           2.8660   -3.0950    0.0000 C.ar    1  UNL1        0.1171
     17 C           4.5981   -3.0950    0.0000 C.ar    1  UNL1       -0.0581
     18 C           3.7320   -3.5950    0.0000 C.ar    1  UNL1       -0.0202
     19 C           2.0000    2.4050    0.0000 C.3     1  UNL1        0.0790
     20 C           7.1962    2.4050    0.0000 C.3     1  UNL1        0.0790
     21 H           4.8101   -0.6776    0.0000 H       1  UNL1        0.0316
     22 H           5.2087    0.0127    0.0000 H       1  UNL1        0.0316
     23 H           3.5200   -0.0124    0.0000 H       1  UNL1        0.0316
     24 H           3.1215   -0.7027    0.0000 H       1  UNL1        0.0316
     25 H           6.0010    1.0950    0.0000 H       1  UNL1        0.0658
     26 H           3.1951    1.0950    0.0000 H       1  UNL1        0.0658
     27 H           2.3291   -1.7850    0.0000 H       1  UNL1        0.0657
     28 H           5.1350   -1.7850    0.0000 H       1  UNL1        0.0620
     29 H           5.1350   -3.4050    0.0000 H       1  UNL1        0.0619
     30 H           3.7320   -4.2150    0.0000 H       1  UNL1        0.0654
     31 H           5.1350    4.2150    0.0000 H       1  UNL1        0.2924
     32 H           1.6900    2.9419    0.0000 H       1  UNL1        0.0660
     33 H           1.4631    2.0950    0.0000 H       1  UNL1        0.0660
     34 H           2.3100    1.8681    0.0000 H       1  UNL1        0.0660
     35 H           6.8862    1.8681    0.0000 H       1  UNL1        0.0660
     36 H           7.7331    2.0950    0.0000 H       1  UNL1        0.0660
     37 H           7.5062    2.9419    0.0000 H       1  UNL1        0.0660
     38 H           2.0000   -4.2150    0.0000 H       1  UNL1        0.2921
@<TRIPOS>BOND
     1     1    11    1
     2     1    19    1
     3     2    12    1
     4     2    20    1
     5     3    13    1
     6     3    31    1
     7     4    16    1
     8     4    38    1
     9     5     6    1
    10     5     7    1
    11     5    21    1
    12     5    22    1
    13     6     8    1
    14     6    23    1
    15     6    24    1
    16     7     9   ar
    17     7    10   ar
    18     8    14   ar
    19     8    15   ar
    20     9    12   ar
    21     9    25    1
    22    10    11   ar
    23    10    26    1
    24    11    13   ar
    25    12    13   ar
    26    14    16   ar
    27    14    27    1
    28    15    17   ar
    29    15    28    1
    30    16    18   ar
    31    17    18   ar
    32    17    29    1
    33    18    30    1
    34    19    32    1
    35    19    33    1
    36    19    34    1
    37    20    35    1
    38    20    36    1
    39    20    37    1
