@<TRIPOS>MOLECULE
IMPHY016298
 23 23 0 0 0
SMALL
GASTEIGER

@<TRIPOS>ATOM
      1 O           4.5981    1.2500    0.0000 O.3     1  UNL1       -0.4912
      2 O           2.8660    0.2500    0.0000 O.3     1  UNL1       -0.4914
      3 C           5.4641   -0.2500    0.0000 C.ar    1  UNL1       -0.0052
      4 C           4.5981    0.2500    0.0000 C.ar    1  UNL1        0.1644
      5 C           3.7320   -0.2500    0.0000 C.ar    1  UNL1        0.1617
      6 C           5.4641   -1.2500    0.0000 C.ar    1  UNL1       -0.0551
      7 C           3.7320   -1.2500    0.0000 C.ar    1  UNL1       -0.0163
      8 C           6.3301    0.2500    0.0000 C.3     1  UNL1       -0.0361
      9 C           4.5981   -1.7500    0.0000 C.ar    1  UNL1       -0.0578
     10 C           5.4641    1.7500    0.0000 C.3     1  UNL1        0.0790
     11 C           2.0000   -0.2500    0.0000 C.3     1  UNL1        0.0790
     12 H           6.0010   -1.5600    0.0000 H       1  UNL1        0.0621
     13 H           3.1951   -1.5600    0.0000 H       1  UNL1        0.0655
     14 H           6.6401   -0.2869    0.0000 H       1  UNL1        0.0279
     15 H           6.8671    0.5600    0.0000 H       1  UNL1        0.0279
     16 H           6.0201    0.7869    0.0000 H       1  UNL1        0.0279
     17 H           4.5981   -2.3700    0.0000 H       1  UNL1        0.0619
     18 H           5.7741    1.2131    0.0000 H       1  UNL1        0.0660
     19 H           6.0010    2.0600    0.0000 H       1  UNL1        0.0660
     20 H           5.1541    2.2869    0.0000 H       1  UNL1        0.0660
     21 H           1.6900    0.2869    0.0000 H       1  UNL1        0.0660
     22 H           1.4631   -0.5600    0.0000 H       1  UNL1        0.0660
     23 H           2.3100   -0.7869    0.0000 H       1  UNL1        0.0660
@<TRIPOS>BOND
     1     1     4    1
     2     1    10    1
     3     2     5    1
     4     2    11    1
     5     3     4   ar
     6     3     6   ar
     7     3     8    1
     8     4     5   ar
     9     5     7   ar
    10     6     9   ar
    11     6    12    1
    12     7     9   ar
    13     7    13    1
    14     8    14    1
    15     8    15    1
    16     8    16    1
    17     9    17    1
    18    10    18    1
    19    10    19    1
    20    10    20    1
    21    11    21    1
    22    11    22    1
    23    11    23    1
