@<TRIPOS>MOLECULE
IMPHY012302
 37 40 0 0 0
SMALL
GASTEIGER

@<TRIPOS>ATOM
      1 O           2.8779   -2.4360    0.0000 O.3     1  UNL1       -0.3873
      2 O           4.6894   -3.4818    0.0000 O.3     1  UNL1       -0.3866
      3 O           6.4927   -2.4221    0.0000 O.3     1  UNL1       -0.3891
      4 O           6.2392    2.8820    0.0000 O.3     1  UNL1       -0.4525
      5 O           2.0000    1.2180    0.0000 O.2     1  UNL1       -0.2701
      6 O           4.8454    3.6867    0.0000 O.3     1  UNL1       -0.4489
      7 O           2.9042    2.7149    0.0000 O.3     1  UNL1       -0.5027
      8 N           2.8522   -0.3336    0.0000 N.am    1  UNL1       -0.3052
      9 C           4.6523   -0.3266    0.0000 C.3     1  UNL1        0.0084
     10 C           3.7542   -0.8544    0.0000 C.3     1  UNL1        0.0587
     11 C           3.7459   -1.9393    0.0000 C.3     1  UNL1        0.1023
     12 C           5.6042   -0.8472    0.0000 C.3     1  UNL1       -0.0157
     13 C           4.6855   -2.4818    0.0000 C.3     1  UNL1        0.1086
     14 C           5.6209   -1.9321    0.0000 C.3     1  UNL1        0.0842
     15 C           4.6362    0.7149    0.0000 C.ar    1  UNL1       -0.0230
     16 C           3.7702    1.2149    0.0000 C.ar    1  UNL1        0.0854
     17 C           2.8602    0.7080    0.0000 C.2     1  UNL1        0.2483
     18 C           5.5022    1.2149    0.0000 C.ar    1  UNL1       -0.0117
     19 C           3.7702    2.2149    0.0000 C.ar    1  UNL1        0.1749
     20 C           5.5022    2.2149    0.0000 C.ar    1  UNL1        0.1702
     21 C           4.6362    2.7149    0.0000 C.ar    1  UNL1        0.2081
     22 C           5.8341    3.7898    0.0000 C.3     1  UNL1        0.2334
     23 H           5.3801    0.1125    0.0000 H       1  UNL1        0.0369
     24 H           3.0165   -1.2765    0.0000 H       1  UNL1        0.0531
     25 H           3.2107   -1.6262    0.0000 H       1  UNL1        0.0639
     26 H           6.2166   -0.9439    0.0000 H       1  UNL1        0.0297
     27 H           5.8042   -0.2604    0.0000 H       1  UNL1        0.0297
     28 H           4.1492   -2.7929    0.0000 H       1  UNL1        0.0646
     29 H           6.1536   -1.6149    0.0000 H       1  UNL1        0.0620
     30 H           2.3140   -0.6415    0.0000 H       1  UNL1        0.1494
     31 H           6.0392    0.9049    0.0000 H       1  UNL1        0.0658
     32 H           2.8755   -3.0560    0.0000 H       1  UNL1        0.2100
     33 H           5.2275   -3.7898    0.0000 H       1  UNL1        0.2100
     34 H           7.0260   -2.1059    0.0000 H       1  UNL1        0.2099
     35 H           6.4237    3.9815    0.0000 H       1  UNL1        0.1166
     36 H           5.7054    4.3962    0.0000 H       1  UNL1        0.1166
     37 H           2.9042    3.3349    0.0000 H       1  UNL1        0.2923
@<TRIPOS>BOND
     1    11     1    1
     2     1    32    1
     3    13     2    1
     4     2    33    1
     5    14     3    1
     6     3    34    1
     7     4    20    1
     8     4    22    1
     9     5    17    2
    10     6    21    1
    11     6    22    1
    12     7    19    1
    13     7    37    1
    14     8    10    1
    15     8    17   am
    16     8    30    1
    17     9    10    1
    18     9    12    1
    19     9    15    1
    20     9    23    1
    21    10    11    1
    22    10    24    1
    23    11    13    1
    24    11    25    1
    25    12    14    1
    26    12    26    1
    27    12    27    1
    28    13    14    1
    29    13    28    1
    30    14    29    1
    31    15    16   ar
    32    15    18   ar
    33    16    17    1
    34    16    19   ar
    35    18    20   ar
    36    18    31    1
    37    19    21   ar
    38    20    21   ar
    39    22    35    1
    40    22    36    1
