@<TRIPOS>MOLECULE
IMPHY001929
 37 37 0 0 0
SMALL
GASTEIGER

@<TRIPOS>ATOM
      1 O           8.5991   -1.5000    0.0000 O.2     1  UNL1       -0.2927
      2 O           2.5369    0.0000    0.0000 O.3     1  UNL1       -0.3921
      3 C           6.8671    0.5000    0.0000 C.3     1  UNL1       -0.0214
      4 C           6.0010    0.0000    0.0000 C.3     1  UNL1       -0.0141
      5 C           5.1350    0.5000    0.0000 C.3     1  UNL1       -0.0437
      6 C           7.7331    0.0000    0.0000 C.3     1  UNL1        0.0156
      7 C           6.0010   -1.0000    0.0000 C.2     1  UNL1       -0.0657
      8 C           7.3671    1.3660    0.0000 C.3     1  UNL1       -0.0589
      9 C           6.3671    1.3660    0.0000 C.3     1  UNL1       -0.0589
     10 C           4.2690    0.0000    0.0000 C.3     1  UNL1       -0.0266
     11 C           7.7331   -1.0000    0.0000 C.2     1  UNL1        0.1566
     12 C           6.8671   -1.5000    0.0000 C.2     1  UNL1       -0.0199
     13 C           5.1350   -1.5000    0.0000 C.3     1  UNL1       -0.0431
     14 C           3.4030    0.5000    0.0000 C.3     1  UNL1        0.0525
     15 C           3.4030    1.5000    0.0000 C.3     1  UNL1       -0.0389
     16 H           5.4641   -0.3100    0.0000 H       1  UNL1        0.0351
     17 H           5.5335    0.9749    0.0000 H       1  UNL1        0.0272
     18 H           4.7365    0.9749    0.0000 H       1  UNL1        0.0272
     19 H           8.3437   -0.1077    0.0000 H       1  UNL1        0.0350
     20 H           7.9451    0.5826    0.0000 H       1  UNL1        0.0350
     21 H           7.9040    1.0560    0.0000 H       1  UNL1        0.0235
     22 H           6.9040    1.6760    0.0000 H       1  UNL1        0.0235
     23 H           6.0571    1.9030    0.0000 H       1  UNL1        0.0235
     24 H           5.8301    1.0560    0.0000 H       1  UNL1        0.0235
     25 H           7.6771    1.9030    0.0000 H       1  UNL1        0.0235
     26 H           6.8301    1.6760    0.0000 H       1  UNL1        0.0235
     27 H           3.8705   -0.4749    0.0000 H       1  UNL1        0.0290
     28 H           4.6675   -0.4749    0.0000 H       1  UNL1        0.0290
     29 H           6.8671   -2.1200    0.0000 H       1  UNL1        0.0652
     30 H           4.8250   -0.9631    0.0000 H       1  UNL1        0.0275
     31 H           4.5981   -1.8100    0.0000 H       1  UNL1        0.0275
     32 H           5.4450   -2.0369    0.0000 H       1  UNL1        0.0275
     33 H           3.4030   -0.1200    0.0000 H       1  UNL1        0.0590
     34 H           4.0230    1.5000    0.0000 H       1  UNL1        0.0254
     35 H           3.4030    2.1200    0.0000 H       1  UNL1        0.0254
     36 H           2.7830    1.5000    0.0000 H       1  UNL1        0.0254
     37 H           2.0000    0.3100    0.0000 H       1  UNL1        0.2098
@<TRIPOS>BOND
     1     1    11    2
     2     2    14    1
     3     2    37    1
     4     3     4    1
     5     3     6    1
     6     3     8    1
     7     3     9    1
     8     4     5    1
     9     4     7    1
    10     4    16    1
    11     5    10    1
    12     5    17    1
    13     5    18    1
    14     6    11    1
    15     6    19    1
    16     6    20    1
    17     7    12    2
    18     7    13    1
    19     8    21    1
    20     8    25    1
    21     8    26    1
    22     9    22    1
    23     9    23    1
    24     9    24    1
    25    10    14    1
    26    10    27    1
    27    10    28    1
    28    11    12    1
    29    12    29    1
    30    13    30    1
    31    13    31    1
    32    13    32    1
    33    14    15    1
    34    14    33    1
    35    15    34    1
    36    15    35    1
    37    15    36    1
