@<TRIPOS>MOLECULE
IMPHY011291
 27 29 0 0 0
SMALL
GASTEIGER

@<TRIPOS>ATOM
      1 O           5.8377   -1.5663    0.0000 O.3     1  UNL1       -0.3647
      2 C           3.7176   -0.2618    0.0000 C.3     1  UNL1       -0.0040
      3 C           4.9386   -1.1275    0.0000 C.3     1  UNL1        0.0965
      4 C           2.3187   -0.2530    0.0000 C.3     1  UNL1       -0.0264
      5 C           3.4588    0.7041    0.0000 C.3     1  UNL1       -0.0327
      6 C           5.7677   -0.5683    0.0000 C.3     1  UNL1        0.0887
      7 C           4.1954    1.6867    0.0000 C.3     1  UNL1       -0.0436
      8 C           5.4920    0.3930    0.0000 C.3     1  UNL1       -0.0205
      9 C           4.1096   -1.6867    0.0000 C.3     1  UNL1       -0.0331
     10 C           1.4526    0.2470    0.0000 C.3     1  UNL1       -0.0592
     11 C           1.8187   -1.1191    0.0000 C.3     1  UNL1       -0.0592
     12 H           3.9376   -1.0829    0.0000 H       1  UNL1        0.0335
     13 H           3.2388    1.5251    0.0000 H       1  UNL1        0.0307
     14 H           6.6047   -0.4206    0.0000 H       1  UNL1        0.0625
     15 H           3.8776    2.2191    0.0000 H       1  UNL1        0.0272
     16 H           4.8085    1.7786    0.0000 H       1  UNL1        0.0272
     17 H           5.4971    1.0129    0.0000 H       1  UNL1        0.0294
     18 H           6.1063    0.4767    0.0000 H       1  UNL1        0.0294
     19 H           4.4563   -2.2007    0.0000 H       1  UNL1        0.0258
     20 H           3.5956   -2.0334    0.0000 H       1  UNL1        0.0258
     21 H           3.7629   -1.1727    0.0000 H       1  UNL1        0.0258
     22 H           1.1426   -0.2900    0.0000 H       1  UNL1        0.0235
     23 H           0.9157    0.5570    0.0000 H       1  UNL1        0.0235
     24 H           1.7626    0.7839    0.0000 H       1  UNL1        0.0235
     25 H           2.3556   -1.4290    0.0000 H       1  UNL1        0.0235
     26 H           1.5087   -1.6560    0.0000 H       1  UNL1        0.0235
     27 H           1.2817   -0.8090    0.0000 H       1  UNL1        0.0235
@<TRIPOS>BOND
     1     1     3    1
     2     1     6    1
     3     2     3    1
     4     2     4    1
     5     2     7    1
     6     2    12    1
     7     3     6    1
     8     3     9    1
     9     4     5    1
    10     4    10    1
    11     4    11    1
    12     5     7    1
    13     5     8    1
    14     5    13    1
    15     6     8    1
    16     6    14    1
    17     7    15    1
    18     7    16    1
    19     8    17    1
    20     8    18    1
    21     9    19    1
    22     9    20    1
    23     9    21    1
    24    10    22    1
    25    10    23    1
    26    10    24    1
    27    11    25    1
    28    11    26    1
    29    11    27    1
