@<TRIPOS>MOLECULE
IMPHY013513
 83 89 0 0 0
SMALL
GASTEIGER

@<TRIPOS>ATOM
      1 O           7.6432    1.0909    0.0000 O.3     1  UNL1       -0.4843
      2 O           5.9237   -0.9199    0.0000 O.3     1  UNL1       -0.4538
      3 O          11.4007    1.0218    0.0000 O.3     1  UNL1       -0.4811
      4 O           9.0988   -3.6212    0.0000 O.2     1  UNL1       -0.2919
      5 O           8.8086    0.4918    0.0000 O.3     1  UNL1       -0.3875
      6 O          10.5405   -3.5573    0.0000 O.3     1  UNL1       -0.5028
      7 O          12.3222   -2.5469    0.0000 O.3     1  UNL1       -0.5033
      8 O           4.3819    2.3675    0.0000 O.3     1  UNL1       -0.5063
      9 O           7.1409    4.5852    0.0000 O.3     1  UNL1       -0.5065
     10 O           4.3114   -0.2871    0.0000 O.2     1  UNL1       -0.2449
     11 O           9.6119    4.0328    0.0000 O.3     1  UNL1       -0.5063
     12 O          13.1513    4.0874    0.0000 O.3     1  UNL1       -0.5065
     13 O           5.4512   -4.4943    0.0000 O.3     1  UNL1       -0.5032
     14 O           2.2265   -3.2287    0.0000 O.3     1  UNL1       -0.5032
     15 O           3.4735   -4.7924    0.0000 O.3     1  UNL1       -0.5009
     16 C           7.9014   -0.6218    0.0000 C.3     1  UNL1        0.0040
     17 C           7.2779    0.1601    0.0000 C.3     1  UNL1        0.1403
     18 C           8.8763   -0.3993    0.0000 C.3     1  UNL1       -0.0202
     19 C           7.4675   -1.5227    0.0000 C.3     1  UNL1       -0.0394
     20 C           6.2890    0.0110    0.0000 C.3     1  UNL1        0.1444
     21 C           9.6581   -1.0227    0.0000 C.ar    1  UNL1       -0.0260
     22 C           7.9014   -2.4237    0.0000 C.3     1  UNL1        0.0110
     23 C           5.6655    0.7928    0.0000 C.3     1  UNL1        0.0201
     24 C          10.5520   -0.4881    0.0000 C.ar    1  UNL1        0.0027
     25 C           9.6581   -2.0227    0.0000 C.ar    1  UNL1        0.0660
     26 C          10.5405    0.5119    0.0000 C.3     1  UNL1        0.1515
     27 C           8.8763   -2.6462    0.0000 C.2     1  UNL1        0.1671
     28 C           6.0309    1.7237    0.0000 C.ar    1  UNL1        0.0395
     29 C           7.0197    1.8728    0.0000 C.ar    1  UNL1        0.1313
     30 C           9.6687    1.0018    0.0000 C.3     1  UNL1        0.1004
     31 C          10.5520   -2.5574    0.0000 C.ar    1  UNL1        0.1692
     32 C          11.4581   -1.0019    0.0000 C.ar    1  UNL1       -0.0095
     33 C           9.6572    2.0017    0.0000 C.3     1  UNL1        0.0092
     34 C          11.4581   -2.0436    0.0000 C.ar    1  UNL1        0.1593
     35 C           5.3690    2.5280    0.0000 C.ar    1  UNL1        0.1271
     36 C           7.4152    2.8364    0.0000 C.ar    1  UNL1        0.0221
     37 C          10.5174    2.5117    0.0000 C.ar    1  UNL1        0.0384
     38 C          11.3891    2.0218    0.0000 C.ar    1  UNL1        0.1317
     39 C           5.7420    3.5005    0.0000 C.ar    1  UNL1        0.0218
     40 C           4.9348   -1.0689    0.0000 C.2     1  UNL1        0.3398
     41 C           6.7720    3.6558    0.0000 C.ar    1  UNL1        0.1238
     42 C          10.4893    3.5530    0.0000 C.ar    1  UNL1        0.1270
     43 C          12.2932    2.5391    0.0000 C.ar    1  UNL1        0.0221
     44 C           4.5695   -1.9998    0.0000 C.ar    1  UNL1        0.0661
     45 C          11.3811    4.0911    0.0000 C.ar    1  UNL1        0.0218
     46 C          12.2892    3.5807    0.0000 C.ar    1  UNL1        0.1238
     47 C           3.5807   -2.1488    0.0000 C.ar    1  UNL1       -0.0023
     48 C           5.1930   -2.7816    0.0000 C.ar    1  UNL1       -0.0023
     49 C           4.8277   -3.7125    0.0000 C.ar    1  UNL1        0.1628
     50 C           3.2153   -3.0797    0.0000 C.ar    1  UNL1        0.1628
     51 C           3.8388   -3.8615    0.0000 C.ar    1  UNL1        0.2006
     52 H           7.2852   -0.6912    0.0000 H       1  UNL1        0.0341
     53 H           8.1184    0.2867    0.0000 H       1  UNL1        0.0773
     54 H           9.3610   -0.0127    0.0000 H       1  UNL1        0.0317
     55 H           8.6073    0.1593    0.0000 H       1  UNL1        0.0317
     56 H           6.9827   -1.1362    0.0000 H       1  UNL1        0.0273
     57 H           6.9827   -1.9093    0.0000 H       1  UNL1        0.0273
     58 H           6.6756   -0.4737    0.0000 H       1  UNL1        0.0775
     59 H           7.2969   -2.5617    0.0000 H       1  UNL1        0.0345
     60 H           7.9014   -3.0437    0.0000 H       1  UNL1        0.0345
     61 H           5.1365    1.1161    0.0000 H       1  UNL1        0.0353
     62 H           5.2553    0.3280    0.0000 H       1  UNL1        0.0353
     63 H          11.2815    0.0954    0.0000 H       1  UNL1        0.0811
     64 H           9.1282    1.3056    0.0000 H       1  UNL1        0.0637
     65 H          11.9939   -0.6899    0.0000 H       1  UNL1        0.0659
     66 H           9.4384    2.5819    0.0000 H       1  UNL1        0.0342
     67 H           9.0479    1.8870    0.0000 H       1  UNL1        0.0342
     68 H           8.0293    2.9217    0.0000 H       1  UNL1        0.0691
     69 H           5.3536    3.9838    0.0000 H       1  UNL1        0.0691
     70 H           8.2681    0.7956    0.0000 H       1  UNL1        0.2100
     71 H          11.0738   -3.8735    0.0000 H       1  UNL1        0.2923
     72 H          12.8301    2.2291    0.0000 H       1  UNL1        0.0691
     73 H          12.8603   -2.2390    0.0000 H       1  UNL1        0.2923
     74 H           3.9898    2.8478    0.0000 H       1  UNL1        0.2921
     75 H          11.3716    4.7110    0.0000 H       1  UNL1        0.0691
     76 H           6.7562    5.0714    0.0000 H       1  UNL1        0.2921
     77 H           3.1941   -1.6641    0.0000 H       1  UNL1        0.0663
     78 H           5.8061   -2.6892    0.0000 H       1  UNL1        0.0663
     79 H           9.5976    4.6526    0.0000 H       1  UNL1        0.2921
     80 H          13.1465    4.7074    0.0000 H       1  UNL1        0.2921
     81 H           5.2246   -5.0714    0.0000 H       1  UNL1        0.2923
     82 H           2.0000   -3.8059    0.0000 H       1  UNL1        0.2923
     83 H           2.8604   -4.8848    0.0000 H       1  UNL1        0.2924
@<TRIPOS>BOND
     1     1    17    1
     2     1    29    1
     3    20     2    1
     4     2    40    1
     5     3    26    1
     6     3    38    1
     7     4    27    2
     8    30     5    1
     9     5    70    1
    10     6    31    1
    11     6    71    1
    12     7    34    1
    13     7    73    1
    14     8    35    1
    15     8    74    1
    16     9    41    1
    17     9    76    1
    18    10    40    2
    19    11    42    1
    20    11    79    1
    21    12    46    1
    22    12    80    1
    23    13    49    1
    24    13    81    1
    25    14    50    1
    26    14    82    1
    27    15    51    1
    28    15    83    1
    29    16    17    1
    30    16    18    1
    31    16    19    1
    32    16    52    1
    33    17    20    1
    34    17    53    1
    35    18    21    1
    36    18    54    1
    37    18    55    1
    38    19    22    1
    39    19    56    1
    40    19    57    1
    41    20    23    1
    42    20    58    1
    43    21    24   ar
    44    21    25   ar
    45    22    27    1
    46    22    59    1
    47    22    60    1
    48    23    28    1
    49    23    61    1
    50    23    62    1
    51    24    26    1
    52    24    32   ar
    53    25    27    1
    54    25    31   ar
    55    26    30    1
    56    26    63    1
    57    28    29   ar
    58    28    35   ar
    59    29    36   ar
    60    30    33    1
    61    30    64    1
    62    31    34   ar
    63    32    34   ar
    64    32    65    1
    65    33    37    1
    66    33    66    1
    67    33    67    1
    68    35    39   ar
    69    36    41   ar
    70    36    68    1
    71    37    38   ar
    72    37    42   ar
    73    38    43   ar
    74    39    41   ar
    75    39    69    1
    76    40    44    1
    77    42    45   ar
    78    43    46   ar
    79    43    72    1
    80    44    47   ar
    81    44    48   ar
    82    45    46   ar
    83    45    75    1
    84    47    50   ar
    85    47    77    1
    86    48    49   ar
    87    48    78    1
    88    49    51   ar
    89    50    51   ar
