@<TRIPOS>MOLECULE
IMPHY003518
 47 46 0 0 0
SMALL
GASTEIGER

@<TRIPOS>ATOM
      1 O           2.8660    0.7500    0.0000 O.3     1  UNL1       -0.4679
      2 O           3.7320   -0.7500    0.0000 O.2     1  UNL1       -0.2509
      3 C           9.7942    0.7500    0.0000 C.3     1  UNL1       -0.0531
      4 C           8.9282    0.2500    0.0000 C.3     1  UNL1       -0.0531
      5 C          10.6603    0.2500    0.0000 C.3     1  UNL1       -0.0531
      6 C           8.0622    0.7500    0.0000 C.3     1  UNL1       -0.0531
      7 C          11.5263    0.7500    0.0000 C.3     1  UNL1       -0.0531
      8 C           7.1962    0.2500    0.0000 C.3     1  UNL1       -0.0530
      9 C          12.3923    0.2500    0.0000 C.3     1  UNL1       -0.0531
     10 C           6.3301    0.7500    0.0000 C.3     1  UNL1       -0.0526
     11 C          13.2583    0.7500    0.0000 C.3     1  UNL1       -0.0533
     12 C           5.4641    0.2500    0.0000 C.3     1  UNL1       -0.0430
     13 C          14.1244    0.2500    0.0000 C.3     1  UNL1       -0.0559
     14 C           4.5981    0.7500    0.0000 C.3     1  UNL1        0.0449
     15 C          14.9904    0.7500    0.0000 C.3     1  UNL1       -0.0653
     16 C           3.7320    0.2500    0.0000 C.2     1  UNL1        0.3068
     17 C           2.0000    0.2500    0.0000 C.3     1  UNL1        0.0817
     18 H          10.1928    1.2250    0.0000 H       1  UNL1        0.0265
     19 H           9.3957    1.2250    0.0000 H       1  UNL1        0.0265
     20 H           8.5297   -0.2249    0.0000 H       1  UNL1        0.0265
     21 H           9.3267   -0.2249    0.0000 H       1  UNL1        0.0265
     22 H          10.2617   -0.2249    0.0000 H       1  UNL1        0.0265
     23 H          11.0588   -0.2249    0.0000 H       1  UNL1        0.0265
     24 H           8.4607    1.2250    0.0000 H       1  UNL1        0.0265
     25 H           7.6636    1.2250    0.0000 H       1  UNL1        0.0265
     26 H          11.9248    1.2250    0.0000 H       1  UNL1        0.0265
     27 H          11.1278    1.2250    0.0000 H       1  UNL1        0.0265
     28 H           6.7976   -0.2249    0.0000 H       1  UNL1        0.0265
     29 H           7.5947   -0.2249    0.0000 H       1  UNL1        0.0265
     30 H          11.9938   -0.2249    0.0000 H       1  UNL1        0.0265
     31 H          12.7908   -0.2249    0.0000 H       1  UNL1        0.0265
     32 H           6.7287    1.2250    0.0000 H       1  UNL1        0.0265
     33 H           5.9316    1.2250    0.0000 H       1  UNL1        0.0265
     34 H          13.6569    1.2250    0.0000 H       1  UNL1        0.0265
     35 H          12.8598    1.2250    0.0000 H       1  UNL1        0.0265
     36 H           5.0656   -0.2249    0.0000 H       1  UNL1        0.0270
     37 H           5.8626   -0.2249    0.0000 H       1  UNL1        0.0270
     38 H          13.7258   -0.2249    0.0000 H       1  UNL1        0.0263
     39 H          14.5229   -0.2249    0.0000 H       1  UNL1        0.0263
     40 H           4.9966    1.2250    0.0000 H       1  UNL1        0.0377
     41 H           4.1996    1.2250    0.0000 H       1  UNL1        0.0377
     42 H          15.3004    0.2131    0.0000 H       1  UNL1        0.0230
     43 H          15.5273    1.0600    0.0000 H       1  UNL1        0.0230
     44 H          14.6804    1.2869    0.0000 H       1  UNL1        0.0230
     45 H           1.6900    0.7869    0.0000 H       1  UNL1        0.0661
     46 H           1.4631   -0.0600    0.0000 H       1  UNL1        0.0661
     47 H           2.3100   -0.2869    0.0000 H       1  UNL1        0.0661
@<TRIPOS>BOND
     1     1    16    1
     2     1    17    1
     3     2    16    2
     4     3     4    1
     5     3     5    1
     6     3    18    1
     7     3    19    1
     8     4     6    1
     9     4    20    1
    10     4    21    1
    11     5     7    1
    12     5    22    1
    13     5    23    1
    14     6     8    1
    15     6    24    1
    16     6    25    1
    17     7     9    1
    18     7    26    1
    19     7    27    1
    20     8    10    1
    21     8    28    1
    22     8    29    1
    23     9    11    1
    24     9    30    1
    25     9    31    1
    26    10    12    1
    27    10    32    1
    28    10    33    1
    29    11    13    1
    30    11    34    1
    31    11    35    1
    32    12    14    1
    33    12    36    1
    34    12    37    1
    35    13    15    1
    36    13    38    1
    37    13    39    1
    38    14    16    1
    39    14    40    1
    40    14    41    1
    41    15    42    1
    42    15    43    1
    43    15    44    1
    44    17    45    1
    45    17    46    1
    46    17    47    1
