@<TRIPOS>MOLECULE
IMPHY009606
 24 24 0 0 0
SMALL
GASTEIGER

@<TRIPOS>ATOM
      1 O           3.4030   -1.6550    0.0000 O.3     1  UNL1       -0.4614
      2 O           2.5369    1.8450    0.0000 O.3     1  UNL1       -0.5032
      3 O           6.0010    1.8450    0.0000 O.3     1  UNL1       -0.5032
      4 O           4.2690    2.8450    0.0000 O.3     1  UNL1       -0.5009
      5 O           5.1350   -1.6550    0.0000 O.2     1  UNL1       -0.2450
      6 C           4.2690   -0.1550    0.0000 C.ar    1  UNL1        0.0661
      7 C           5.1350    0.3450    0.0000 C.ar    1  UNL1       -0.0023
      8 C           3.4030    0.3450    0.0000 C.ar    1  UNL1       -0.0023
      9 C           3.4030    1.3450    0.0000 C.ar    1  UNL1        0.1628
     10 C           5.1350    1.3450    0.0000 C.ar    1  UNL1        0.1628
     11 C           4.2690    1.8450    0.0000 C.ar    1  UNL1        0.2006
     12 C           4.2690   -1.1550    0.0000 C.2     1  UNL1        0.3394
     13 C           3.4030   -2.6550    0.0000 C.3     1  UNL1        0.0900
     14 C           2.5369   -3.1550    0.0000 C.3     1  UNL1       -0.0306
     15 H           5.6720    0.0350    0.0000 H       1  UNL1        0.0663
     16 H           2.8660    0.0350    0.0000 H       1  UNL1        0.0663
     17 H           3.6150   -3.2376    0.0000 H       1  UNL1        0.0695
     18 H           4.0135   -2.5473    0.0000 H       1  UNL1        0.0695
     19 H           2.2269   -2.6181    0.0000 H       1  UNL1        0.0262
     20 H           2.0000   -3.4650    0.0000 H       1  UNL1        0.0262
     21 H           2.8469   -3.6919    0.0000 H       1  UNL1        0.0262
     22 H           2.0000    1.5350    0.0000 H       1  UNL1        0.2923
     23 H           6.5380    1.5350    0.0000 H       1  UNL1        0.2923
     24 H           4.8059    3.1550    0.0000 H       1  UNL1        0.2924
@<TRIPOS>BOND
     1     1    12    1
     2     1    13    1
     3     2     9    1
     4     2    22    1
     5     3    10    1
     6     3    23    1
     7     4    11    1
     8     4    24    1
     9     5    12    2
    10     6     7   ar
    11     6     8   ar
    12     6    12    1
    13     7    10   ar
    14     7    15    1
    15     8     9   ar
    16     8    16    1
    17     9    11   ar
    18    10    11   ar
    19    13    14    1
    20    13    17    1
    21    13    18    1
    22    14    19    1
    23    14    20    1
    24    14    21    1
