@<TRIPOS>MOLECULE
IMPHY008359
 82 86 0 0 0
SMALL
GASTEIGER

@<TRIPOS>ATOM
      1 O          10.1808   -0.8381    0.0000 O.3     1  UNL1       -0.3912
      2 O           4.9186    1.1861    0.0000 O.3     1  UNL1       -0.3944
      3 O           2.1236   -2.3663    0.0000 O.2     1  UNL1       -0.2968
      4 O          11.1246    2.8304    0.0000 O.2     1  UNL1       -0.2971
      5 C           6.6507   -0.8139    0.0000 C.3     1  UNL1       -0.0206
      6 C           5.7847   -0.3139    0.0000 C.3     1  UNL1        0.0029
      7 C           7.5167   -0.3139    0.0000 C.3     1  UNL1       -0.0270
      8 C           7.5167    0.6861    0.0000 C.3     1  UNL1       -0.0252
      9 C           4.8746   -0.8208    0.0000 C.3     1  UNL1       -0.0261
     10 C           8.4106    1.2207    0.0000 C.3     1  UNL1       -0.0266
     11 C           5.7847    0.6861    0.0000 C.3     1  UNL1       -0.0440
     12 C           4.8666   -1.8624    0.0000 C.3     1  UNL1       -0.0219
     13 C           6.6507    1.1861    0.0000 C.3     1  UNL1       -0.0465
     14 C           9.3167    0.7069    0.0000 C.3     1  UNL1        0.0065
     15 C           6.6667   -1.8554    0.0000 C.3     1  UNL1       -0.0463
     16 C           8.4106   -0.8486    0.0000 C.3     1  UNL1       -0.0225
     17 C           5.7687   -2.3832    0.0000 C.3     1  UNL1       -0.0464
     18 C           9.3167   -0.3348    0.0000 C.3     1  UNL1        0.0618
     19 C           3.9478   -0.2567    0.0000 C.3     1  UNL1       -0.0372
     20 C           7.5167   -1.3139    0.0000 C.3     1  UNL1       -0.0587
     21 C           4.9186    0.1861    0.0000 C.3     1  UNL1        0.0506
     22 C           7.5167    1.6861    0.0000 C.3     1  UNL1       -0.0590
     23 C           8.3856    2.3054    0.0000 C.3     1  UNL1       -0.0424
     24 C          10.2605    1.2421    0.0000 C.3     1  UNL1        0.0227
     25 C           3.9312   -2.4121    0.0000 C.3     1  UNL1        0.0120
     26 C           2.9999   -0.7846    0.0000 C.3     1  UNL1        0.0237
     27 C           4.8589   -2.8624    0.0000 C.3     1  UNL1       -0.0589
     28 C          10.1866    0.2136    0.0000 C.3     1  UNL1       -0.0563
     29 C           9.3167    2.8624    0.0000 C.3     1  UNL1        0.0064
     30 C           2.9916   -1.8696    0.0000 C.2     1  UNL1        0.1395
     31 C          10.2605    2.3271    0.0000 C.2     1  UNL1        0.1368
     32 C          11.1246    0.7388    0.0000 C.3     1  UNL1       -0.0551
     33 C           2.0000   -0.7731    0.0000 C.3     1  UNL1       -0.0531
     34 C           2.5100    0.0871    0.0000 C.3     1  UNL1       -0.0531
     35 H           8.2561    0.1054    0.0000 H       1  UNL1        0.0312
     36 H           5.6058   -1.2543    0.0000 H       1  UNL1        0.0313
     37 H           9.1401    1.6570    0.0000 H       1  UNL1        0.0312
     38 H           5.5726    1.2687    0.0000 H       1  UNL1        0.0272
     39 H           5.1741    0.5784    0.0000 H       1  UNL1        0.0272
     40 H           7.0492    1.6610    0.0000 H       1  UNL1        0.0271
     41 H           6.2522    1.6610    0.0000 H       1  UNL1        0.0271
     42 H           6.8848   -2.4358    0.0000 H       1  UNL1        0.0271
     43 H           7.2759   -1.7399    0.0000 H       1  UNL1        0.0271
     44 H           8.0060   -1.3184    0.0000 H       1  UNL1        0.0293
     45 H           8.8043   -1.3276    0.0000 H       1  UNL1        0.0293
     46 H           5.3714   -2.8592    0.0000 H       1  UNL1        0.0271
     47 H           6.1697   -2.8561    0.0000 H       1  UNL1        0.0271
     48 H           9.3131   -0.9547    0.0000 H       1  UNL1        0.0599
     49 H           4.3560    0.2100    0.0000 H       1  UNL1        0.0277
     50 H           3.5579    0.2253    0.0000 H       1  UNL1        0.0277
     51 H           7.2067   -1.8509    0.0000 H       1  UNL1        0.0235
     52 H           8.0536   -1.6239    0.0000 H       1  UNL1        0.0235
     53 H           7.8267   -0.7770    0.0000 H       1  UNL1        0.0235
     54 H           4.3080    0.2937    0.0000 H       1  UNL1        0.0563
     55 H           4.7066   -0.3965    0.0000 H       1  UNL1        0.0563
     56 H           8.1367    1.6861    0.0000 H       1  UNL1        0.0235
     57 H           7.5167    2.3061    0.0000 H       1  UNL1        0.0235
     58 H           6.8967    1.6861    0.0000 H       1  UNL1        0.0235
     59 H           8.1631    2.8841    0.0000 H       1  UNL1        0.0272
     60 H           7.7773    2.1852    0.0000 H       1  UNL1        0.0272
     61 H          10.7980    1.5511    0.0000 H       1  UNL1        0.0381
     62 H           3.5339   -2.8881    0.0000 H       1  UNL1        0.0347
     63 H           4.3322   -2.8850    0.0000 H       1  UNL1        0.0347
     64 H           4.2389   -2.8576    0.0000 H       1  UNL1        0.0235
     65 H           4.8541   -3.4823    0.0000 H       1  UNL1        0.0235
     66 H           5.4789   -2.8671    0.0000 H       1  UNL1        0.0235
     67 H           9.8807   -0.3257    0.0000 H       1  UNL1        0.0236
     68 H          10.7259   -0.0923    0.0000 H       1  UNL1        0.0236
     69 H          10.4924    0.7529    0.0000 H       1  UNL1        0.0236
     70 H           9.7103    3.3414    0.0000 H       1  UNL1        0.0342
     71 H           8.9121    3.3321    0.0000 H       1  UNL1        0.0342
     72 H          10.1784   -1.4581    0.0000 H       1  UNL1        0.2098
     73 H          10.8125    0.2030    0.0000 H       1  UNL1        0.0237
     74 H          11.6603    0.4267    0.0000 H       1  UNL1        0.0237
     75 H          11.4367    1.2745    0.0000 H       1  UNL1        0.0237
     76 H           3.0505    0.3909    0.0000 H       1  UNL1        0.0239
     77 H           2.2062    0.6276    0.0000 H       1  UNL1        0.0239
     78 H           1.9695   -0.2167    0.0000 H       1  UNL1        0.0239
     79 H           2.0072   -0.1531    0.0000 H       1  UNL1        0.0239
     80 H           1.3800   -0.7659    0.0000 H       1  UNL1        0.0239
     81 H           1.9928   -1.3930    0.0000 H       1  UNL1        0.0239
     82 H           4.3817    1.4961    0.0000 H       1  UNL1        0.2094
@<TRIPOS>BOND
     1    18     1    1
     2     1    72    1
     3     2    21    1
     4     2    82    1
     5     3    30    2
     6     4    31    2
     7     5     6    1
     8     5     7    1
     9     5    15    1
    10     5    20    1
    11     6     9    1
    12     6    11    1
    13     6    21    1
    14     7     8    1
    15     7    16    1
    16     7    35    1
    17     8    10    1
    18     8    13    1
    19     8    22    1
    20     9    12    1
    21     9    19    1
    22     9    36    1
    23    10    14    1
    24    10    23    1
    25    10    37    1
    26    11    13    1
    27    11    38    1
    28    11    39    1
    29    12    17    1
    30    12    25    1
    31    12    27    1
    32    13    40    1
    33    13    41    1
    34    14    18    1
    35    14    24    1
    36    14    28    1
    37    15    17    1
    38    15    42    1
    39    15    43    1
    40    16    18    1
    41    16    44    1
    42    16    45    1
    43    17    46    1
    44    17    47    1
    45    18    48    1
    46    19    26    1
    47    19    49    1
    48    19    50    1
    49    20    51    1
    50    20    52    1
    51    20    53    1
    52    21    54    1
    53    21    55    1
    54    22    56    1
    55    22    57    1
    56    22    58    1
    57    23    29    1
    58    23    59    1
    59    23    60    1
    60    24    31    1
    61    24    32    1
    62    24    61    1
    63    25    30    1
    64    25    62    1
    65    25    63    1
    66    26    30    1
    67    26    33    1
    68    26    34    1
    69    27    64    1
    70    27    65    1
    71    27    66    1
    72    28    67    1
    73    28    68    1
    74    28    69    1
    75    29    31    1
    76    29    70    1
    77    29    71    1
    78    32    73    1
    79    32    74    1
    80    32    75    1
    81    33    79    1
    82    33    80    1
    83    33    81    1
    84    34    76    1
    85    34    77    1
    86    34    78    1
