@<TRIPOS>MOLECULE
IMPHY014363
 52 54 0 0 0
SMALL
GASTEIGER

@<TRIPOS>ATOM
      1 O           7.2857   -1.4476    0.0000 O.3     1  UNL1       -0.3872
      2 O           2.3038   -2.3656    0.0000 O.3     1  UNL1       -0.4802
      3 O           3.8137   -3.2142    0.0000 O.2     1  UNL1       -0.2504
      4 O           9.0736    2.5942    0.0000 O.3     1  UNL1       -0.3845
      5 C           4.6876   -0.9476    0.0000 C.3     1  UNL1       -0.0135
      6 C           4.6876    0.0524    0.0000 C.3     1  UNL1       -0.0028
      7 C           3.7937   -1.4822    0.0000 C.3     1  UNL1        0.0685
      8 C           3.7937    0.5871    0.0000 C.3     1  UNL1       -0.0433
      9 C           5.5536   -1.4476    0.0000 C.3     1  UNL1       -0.0180
     10 C           2.8876   -0.9684    0.0000 C.3     1  UNL1       -0.0372
     11 C           2.8876    0.0732    0.0000 C.3     1  UNL1       -0.0512
     12 C           5.5536    0.5524    0.0000 C.ar    1  UNL1       -0.0355
     13 C           6.4196   -0.9476    0.0000 C.3     1  UNL1        0.0808
     14 C           4.6876    1.0524    0.0000 C.3     1  UNL1       -0.0552
     15 C           6.4196    0.0524    0.0000 C.ar    1  UNL1       -0.0151
     16 C           4.3036   -2.3424    0.0000 C.3     1  UNL1       -0.0491
     17 C           3.3037   -2.3540    0.0000 C.2     1  UNL1        0.3110
     18 C           5.5376    1.5939    0.0000 C.ar    1  UNL1       -0.0574
     19 C           7.3296    0.5593    0.0000 C.ar    1  UNL1       -0.0500
     20 C           7.3377    1.6009    0.0000 C.ar    1  UNL1       -0.0163
     21 C           6.4356    2.1217    0.0000 C.ar    1  UNL1       -0.0556
     22 C           8.2056    2.0975    0.0000 C.3     1  UNL1        0.0854
     23 C           7.7090    2.9655    0.0000 C.3     1  UNL1       -0.0321
     24 C           8.7023    1.2296    0.0000 C.3     1  UNL1       -0.0321
     25 H           4.6941   -1.7976    0.0000 H       1  UNL1        0.0321
     26 H           4.1982    1.0569    0.0000 H       1  UNL1        0.0274
     27 H           3.4000    1.0661    0.0000 H       1  UNL1        0.0274
     28 H           5.1551   -1.9225    0.0000 H       1  UNL1        0.0297
     29 H           5.9521   -1.9225    0.0000 H       1  UNL1        0.0297
     30 H           2.2767   -0.8623    0.0000 H       1  UNL1        0.0276
     31 H           2.6785   -1.5521    0.0000 H       1  UNL1        0.0276
     32 H           2.6785    0.6569    0.0000 H       1  UNL1        0.0266
     33 H           2.2767   -0.0329    0.0000 H       1  UNL1        0.0266
     34 H           6.9566   -0.6376    0.0000 H       1  UNL1        0.0644
     35 H           5.3076    1.0524    0.0000 H       1  UNL1        0.0238
     36 H           4.6876    1.6724    0.0000 H       1  UNL1        0.0238
     37 H           4.0676    1.0524    0.0000 H       1  UNL1        0.0238
     38 H           3.7703   -2.6586    0.0000 H       1  UNL1        0.0240
     39 H           4.6198   -2.8757    0.0000 H       1  UNL1        0.0240
     40 H           4.8370   -2.0262    0.0000 H       1  UNL1        0.0240
     41 H           4.9971    1.8977    0.0000 H       1  UNL1        0.0621
     42 H           7.8630    0.2431    0.0000 H       1  UNL1        0.0625
     43 H           6.4332    2.7417    0.0000 H       1  UNL1        0.0621
     44 H           7.2857   -2.0676    0.0000 H       1  UNL1        0.2102
     45 H           2.0000   -2.9060    0.0000 H       1  UNL1        0.2951
     46 H           8.2471    3.2734    0.0000 H       1  UNL1        0.0260
     47 H           7.4010    3.5036    0.0000 H       1  UNL1        0.0260
     48 H           7.1708    2.6575    0.0000 H       1  UNL1        0.0260
     49 H           8.1642    0.9216    0.0000 H       1  UNL1        0.0260
     50 H           9.0102    0.6914    0.0000 H       1  UNL1        0.0260
     51 H           9.2404    1.5375    0.0000 H       1  UNL1        0.0260
     52 H           9.0760    3.2142    0.0000 H       1  UNL1        0.2106
@<TRIPOS>BOND
     1    13     1    1
     2     1    44    1
     3     2    17    1
     4     2    45    1
     5     3    17    2
     6     4    22    1
     7     4    52    1
     8     5     6    1
     9     5     7    1
    10     5     9    1
    11     5    25    1
    12     6     8    1
    13     6    12    1
    14     6    14    1
    15     7    10    1
    16     7    16    1
    17     7    17    1
    18     8    11    1
    19     8    26    1
    20     8    27    1
    21     9    13    1
    22     9    28    1
    23     9    29    1
    24    10    11    1
    25    10    30    1
    26    10    31    1
    27    11    32    1
    28    11    33    1
    29    12    15   ar
    30    12    18   ar
    31    13    15    1
    32    13    34    1
    33    14    35    1
    34    14    36    1
    35    14    37    1
    36    15    19   ar
    37    16    38    1
    38    16    39    1
    39    16    40    1
    40    18    21   ar
    41    18    41    1
    42    19    20   ar
    43    19    42    1
    44    20    21   ar
    45    20    22    1
    46    21    43    1
    47    22    23    1
    48    22    24    1
    49    23    46    1
    50    23    47    1
    51    23    48    1
    52    24    49    1
    53    24    50    1
    54    24    51    1
