@<TRIPOS>MOLECULE
IMPHY011553
 41 43 0 0 0
SMALL
GASTEIGER

@<TRIPOS>ATOM
      1 O           4.4003    0.4091    0.0000 O.3     1  UNL1       -0.4578
      2 O           4.9927   -1.2185    0.0000 O.2     1  UNL1       -0.2450
      3 N           6.9123    3.0061    0.0000 N.3     1  UNL1       -0.2992
      4 C           7.6489    2.0235    0.0000 C.3     1  UNL1        0.0138
      5 C           7.3901    1.0576    0.0000 C.3     1  UNL1        0.0138
      6 C           9.0478    1.5147    0.0000 C.3     1  UNL1       -0.0358
      7 C           8.7890    0.5488    0.0000 C.3     1  UNL1       -0.0358
      8 C           5.6157    1.7124    0.0000 C.3     1  UNL1        0.0000
      9 C           6.1691    0.1919    0.0000 C.3     1  UNL1        0.0000
     10 C           5.3400    0.7511    0.0000 C.3     1  UNL1        0.1063
     11 C           6.4123    3.8722    0.0000 C.3     1  UNL1       -0.0122
     12 C           4.2267   -0.5757    0.0000 C.2     1  UNL1        0.3395
     13 C           3.2870   -0.9177    0.0000 C.2     1  UNL1        0.0591
     14 C           3.1133   -1.9025    0.0000 C.ar    1  UNL1       -0.0116
     15 C           2.5209   -0.2749    0.0000 C.2     1  UNL1       -0.0841
     16 C           2.1736   -2.2446    0.0000 C.ar    1  UNL1       -0.0538
     17 C           3.8794   -2.5453    0.0000 C.ar    1  UNL1       -0.0538
     18 C           2.0000   -3.2294    0.0000 C.ar    1  UNL1       -0.0612
     19 C           3.7057   -3.5301    0.0000 C.ar    1  UNL1       -0.0612
     20 C           2.7660   -3.8722    0.0000 C.ar    1  UNL1       -0.0617
     21 H           7.8689    2.8446    0.0000 H       1  UNL1        0.0464
     22 H           7.1701    0.2366    0.0000 H       1  UNL1        0.0464
     23 H           9.6418    1.3369    0.0000 H       1  UNL1        0.0281
     24 H           9.2428    2.1032    0.0000 H       1  UNL1        0.0281
     25 H           8.5941   -0.0398    0.0000 H       1  UNL1        0.0281
     26 H           9.3830    0.3710    0.0000 H       1  UNL1        0.0281
     27 H           5.6106    2.3324    0.0000 H       1  UNL1        0.0316
     28 H           5.0014    1.7962    0.0000 H       1  UNL1        0.0316
     29 H           5.7632   -0.2768    0.0000 H       1  UNL1        0.0316
     30 H           6.5857   -0.2672    0.0000 H       1  UNL1        0.0316
     31 H           5.2645    0.1357    0.0000 H       1  UNL1        0.0735
     32 H           6.9492    4.1822    0.0000 H       1  UNL1        0.0391
     33 H           6.1023    4.4091    0.0000 H       1  UNL1        0.0391
     34 H           5.8754    3.5622    0.0000 H       1  UNL1        0.0391
     35 H           2.6286    0.3356    0.0000 H       1  UNL1        0.0543
     36 H           1.9383   -0.4870    0.0000 H       1  UNL1        0.0543
     37 H           1.6987   -1.8460    0.0000 H       1  UNL1        0.0624
     38 H           4.4620   -2.3333    0.0000 H       1  UNL1        0.0624
     39 H           1.4174   -3.4414    0.0000 H       1  UNL1        0.0618
     40 H           4.1807   -3.9287    0.0000 H       1  UNL1        0.0618
     41 H           2.6584   -4.4827    0.0000 H       1  UNL1        0.0618
@<TRIPOS>BOND
     1     1    10    1
     2     1    12    1
     3     2    12    2
     4     3     4    1
     5     3     5    1
     6     3    11    1
     7     4     6    1
     8     4     8    1
     9     4    21    1
    10     5     7    1
    11     5     9    1
    12     5    22    1
    13     6     7    1
    14     6    23    1
    15     6    24    1
    16     7    25    1
    17     7    26    1
    18     8    10    1
    19     8    27    1
    20     8    28    1
    21     9    10    1
    22     9    29    1
    23     9    30    1
    24    10    31    1
    25    11    32    1
    26    11    33    1
    27    11    34    1
    28    12    13    1
    29    13    14    1
    30    13    15    2
    31    14    16   ar
    32    14    17   ar
    33    15    35    1
    34    15    36    1
    35    16    18   ar
    36    16    37    1
    37    17    19   ar
    38    17    38    1
    39    18    20   ar
    40    18    39    1
    41    19    20   ar
    42    19    40    1
    43    20    41    1
