@<TRIPOS>MOLECULE
IMPHY017687
 20 20 0 0 0
SMALL
GASTEIGER

@<TRIPOS>ATOM
      1 N           4.5981   -0.5000    0.0000 N.ar    1  UNL1       -0.2596
      2 C           2.8660   -0.5000    0.0000 C.3     1  UNL1       -0.0043
      3 C           3.7320   -0.0000    0.0000 C.ar    1  UNL1        0.0438
      4 C           2.0000   -0.0000    0.0000 C.3     1  UNL1       -0.0572
      5 C           2.8660   -1.5000    0.0000 C.3     1  UNL1       -0.0572
      6 C           3.7320    1.0000    0.0000 C.ar    1  UNL1       -0.0401
      7 C           4.5981    1.5000    0.0000 C.ar    1  UNL1       -0.0586
      8 C           5.4641    0.0000    0.0000 C.ar    1  UNL1        0.0279
      9 C           5.4641    1.0000    0.0000 C.ar    1  UNL1       -0.0436
     10 H           2.8660    0.1200    0.0000 H       1  UNL1        0.0358
     11 H           2.3100    0.5369    0.0000 H       1  UNL1        0.0236
     12 H           1.4631    0.3100    0.0000 H       1  UNL1        0.0236
     13 H           1.6900   -0.5369    0.0000 H       1  UNL1        0.0236
     14 H           2.2460   -1.5000    0.0000 H       1  UNL1        0.0236
     15 H           2.8660   -2.1200    0.0000 H       1  UNL1        0.0236
     16 H           3.4860   -1.5000    0.0000 H       1  UNL1        0.0236
     17 H           3.1951    1.3100    0.0000 H       1  UNL1        0.0636
     18 H           4.5981    2.1200    0.0000 H       1  UNL1        0.0619
     19 H           6.0010   -0.3100    0.0000 H       1  UNL1        0.0829
     20 H           6.0010    1.3100    0.0000 H       1  UNL1        0.0633
@<TRIPOS>BOND
     1     1     3   ar
     2     1     8   ar
     3     2     3    1
     4     2     4    1
     5     2     5    1
     6     2    10    1
     7     3     6   ar
     8     4    11    1
     9     4    12    1
    10     4    13    1
    11     5    14    1
    12     5    15    1
    13     5    16    1
    14     6     7   ar
    15     6    17    1
    16     7     9   ar
    17     7    18    1
    18     8     9   ar
    19     8    19    1
    20     9    20    1
