@<TRIPOS>MOLECULE
IMPHY002185
 104 109 0 0 0
SMALL
GASTEIGER

@<TRIPOS>ATOM
      1 O          14.8541    1.3902    0.0000 O.3     1  UNL1       -0.3877
      2 O          17.0762   -2.0799    0.0000 O.3     1  UNL1       -0.4615
      3 O           9.4651    2.4633    0.0000 O.3     1  UNL1       -0.3477
      4 O           7.7331    2.4633    0.0000 O.3     1  UNL1       -0.3456
      5 O          16.7124   -3.7733    0.0000 O.2     1  UNL1       -0.2512
      6 O           7.7331   -0.5367    0.0000 O.3     1  UNL1       -0.3770
      7 O           6.0010    0.4633    0.0000 O.3     1  UNL1       -0.3429
      8 O           4.2690    0.4633    0.0000 O.3     1  UNL1       -0.3456
      9 O           4.2690    3.4633    0.0000 O.3     1  UNL1       -0.3890
     10 O           2.5369    2.4633    0.0000 O.3     1  UNL1       -0.3867
     11 C          14.8464   -0.6098    0.0000 C.3     1  UNL1        0.0032
     12 C          14.8503    0.3902    0.0000 C.3     1  UNL1        0.0752
     13 C          13.9862    0.8935    0.0000 C.3     1  UNL1       -0.0046
     14 C          13.1182    0.3969    0.0000 C.3     1  UNL1       -0.0262
     15 C          15.7915   -0.9182    0.0000 C.3     1  UNL1        0.0040
     16 C          13.9785   -1.1064    0.0000 C.3     1  UNL1       -0.0443
     17 C          12.2102    0.9072    0.0000 C.3     1  UNL1       -0.0077
     18 C          15.7977    0.6913    0.0000 C.3     1  UNL1       -0.0228
     19 C          13.1144   -0.6031    0.0000 C.3     1  UNL1       -0.0485
     20 C          16.3782   -0.1157    0.0000 C.3     1  UNL1       -0.0436
     21 C          14.0063    1.9350    0.0000 C.3     1  UNL1       -0.0287
     22 C          14.8426   -1.6098    0.0000 C.3     1  UNL1       -0.0566
     23 C          12.2062    1.9488    0.0000 C.2     1  UNL1       -0.0648
     24 C          11.2812    0.3467    0.0000 C.3     1  UNL1       -0.0413
     25 C          16.0985   -1.8699    0.0000 C.3     1  UNL1        0.1037
     26 C          13.1103    2.4662    0.0000 C.2     1  UNL1       -0.0838
     27 C          12.2140   -0.0928    0.0000 C.3     1  UNL1       -0.0556
     28 C          11.2729    2.5022    0.0000 C.3     1  UNL1       -0.0047
     29 C          10.3353    0.8783    0.0000 C.3     1  UNL1       -0.0254
     30 C          10.3312    1.9633    0.0000 C.3     1  UNL1        0.0654
     31 C          15.4277   -2.6116    0.0000 C.3     1  UNL1       -0.0274
     32 C          17.3832   -3.0316    0.0000 C.2     1  UNL1        0.3042
     33 C           8.5991    1.9633    0.0000 C.3     1  UNL1        0.1624
     34 C           8.5991    0.9633    0.0000 C.3     1  UNL1        0.0272
     35 C          18.3609   -3.2416    0.0000 C.3     1  UNL1        0.0332
     36 C           7.7331    0.4633    0.0000 C.3     1  UNL1        0.0915
     37 C           6.8671    1.9633    0.0000 C.3     1  UNL1        0.0875
     38 C           6.8671    0.9633    0.0000 C.3     1  UNL1        0.1137
     39 C           6.0010    2.4633    0.0000 C.3     1  UNL1       -0.0361
     40 C           5.1350    0.9633    0.0000 C.3     1  UNL1        0.1626
     41 C           8.5991   -1.0367    0.0000 C.3     1  UNL1        0.0369
     42 C           5.1350    1.9633    0.0000 C.3     1  UNL1        0.0270
     43 C           4.2690    2.4633    0.0000 C.3     1  UNL1        0.0881
     44 C           3.4030    0.9633    0.0000 C.3     1  UNL1        0.0871
     45 C           3.4030    1.9633    0.0000 C.3     1  UNL1        0.1070
     46 C           2.5369    0.4633    0.0000 C.3     1  UNL1       -0.0361
     47 H          14.7272    1.3100    0.0000 H       1  UNL1        0.0335
     48 H          13.8527   -0.0310    0.0000 H       1  UNL1        0.0313
     49 H          16.6306   -1.0533    0.0000 H       1  UNL1        0.0343
     50 H          13.5781   -1.5799    0.0000 H       1  UNL1        0.0272
     51 H          14.3752   -1.5829    0.0000 H       1  UNL1        0.0272
     52 H          16.3362    0.9984    0.0000 H       1  UNL1        0.0293
     53 H          15.5488    1.2592    0.0000 H       1  UNL1        0.0293
     54 H          12.5042   -0.4931    0.0000 H       1  UNL1        0.0268
     55 H          12.9001   -1.1849    0.0000 H       1  UNL1        0.0268
     56 H          16.8374   -0.5322    0.0000 H       1  UNL1        0.0270
     57 H          16.8406    0.2973    0.0000 H       1  UNL1        0.0270
     58 H          14.6150    1.8171    0.0000 H       1  UNL1        0.0311
     59 H          14.2265    2.5145    0.0000 H       1  UNL1        0.0311
     60 H          14.2226   -1.6074    0.0000 H       1  UNL1        0.0236
     61 H          14.8402   -2.2298    0.0000 H       1  UNL1        0.0236
     62 H          15.4626   -1.6122    0.0000 H       1  UNL1        0.0236
     63 H          10.8894   -0.1338    0.0000 H       1  UNL1        0.0274
     64 H          11.6876   -0.1215    0.0000 H       1  UNL1        0.0274
     65 H          16.2888   -2.4599    0.0000 H       1  UNL1        0.0734
     66 H          13.1150    3.0862    0.0000 H       1  UNL1        0.0572
     67 H          15.3923    1.6981    0.0000 H       1  UNL1        0.2102
     68 H          11.5941   -0.0952    0.0000 H       1  UNL1        0.0238
     69 H          12.2164   -0.7128    0.0000 H       1  UNL1        0.0238
     70 H          12.8340   -0.0904    0.0000 H       1  UNL1        0.0238
     71 H          11.6757    2.9735    0.0000 H       1  UNL1        0.0335
     72 H          10.8774    2.9797    0.0000 H       1  UNL1        0.0335
     73 H           9.7241    0.9821    0.0000 H       1  UNL1        0.0290
     74 H          10.1285    0.2938    0.0000 H       1  UNL1        0.0290
     75 H           9.7948    1.6523    0.0000 H       1  UNL1        0.0600
     76 H          14.9679   -2.1958    0.0000 H       1  UNL1        0.0265
     77 H          15.0119   -3.0715    0.0000 H       1  UNL1        0.0265
     78 H          15.8876   -3.0274    0.0000 H       1  UNL1        0.0265
     79 H           8.5991    2.5833    0.0000 H       1  UNL1        0.0910
     80 H           8.8112    0.3807    0.0000 H       1  UNL1        0.0340
     81 H           9.2097    1.0710    0.0000 H       1  UNL1        0.0340
     82 H          18.2307   -3.8478    0.0000 H       1  UNL1        0.0342
     83 H          18.9670   -3.3718    0.0000 H       1  UNL1        0.0342
     84 H          18.4911   -2.6354    0.0000 H       1  UNL1        0.0342
     85 H           8.2700    0.1533    0.0000 H       1  UNL1        0.0624
     86 H           6.8671    2.5833    0.0000 H       1  UNL1        0.0621
     87 H           6.3301    1.2733    0.0000 H       1  UNL1        0.0649
     88 H           6.3110    3.0002    0.0000 H       1  UNL1        0.0255
     89 H           5.4641    2.7733    0.0000 H       1  UNL1        0.0255
     90 H           5.6910    1.9264    0.0000 H       1  UNL1        0.0255
     91 H           5.1350    0.3433    0.0000 H       1  UNL1        0.0910
     92 H           8.2891   -1.5736    0.0000 H       1  UNL1        0.0524
     93 H           9.1360   -1.3467    0.0000 H       1  UNL1        0.0524
     94 H           8.9091   -0.4998    0.0000 H       1  UNL1        0.0524
     95 H           5.7456    1.8556    0.0000 H       1  UNL1        0.0340
     96 H           5.3471    2.5459    0.0000 H       1  UNL1        0.0340
     97 H           4.8059    2.7733    0.0000 H       1  UNL1        0.0621
     98 H           3.4030    0.3433    0.0000 H       1  UNL1        0.0621
     99 H           3.4030    2.5833    0.0000 H       1  UNL1        0.0645
    100 H           2.2269    1.0002    0.0000 H       1  UNL1        0.0255
    101 H           2.0000    0.1533    0.0000 H       1  UNL1        0.0255
    102 H           2.8469   -0.0736    0.0000 H       1  UNL1        0.0255
    103 H           3.7320    3.7733    0.0000 H       1  UNL1        0.2099
    104 H           2.0000    2.1533    0.0000 H       1  UNL1        0.2100
@<TRIPOS>BOND
     1    12     1    1
     2     1    67    1
     3    25     2    1
     4     2    32    1
     5    30     3    1
     6    33     3    1
     7     4    33    1
     8     4    37    1
     9     5    32    2
    10    36     6    1
    11     6    41    1
    12    38     7    1
    13    40     7    1
    14     8    40    1
    15     8    44    1
    16    43     9    1
    17     9   103    1
    18    45    10    1
    19    10   104    1
    20    11    12    1
    21    11    15    1
    22    11    16    1
    23    11    22    1
    24    12    13    1
    25    12    18    1
    26    13    14    1
    27    13    21    1
    28    13    47    1
    29    14    17    1
    30    14    19    1
    31    14    48    1
    32    15    20    1
    33    15    25    1
    34    15    49    1
    35    16    19    1
    36    16    50    1
    37    16    51    1
    38    17    23    1
    39    17    24    1
    40    17    27    1
    41    18    20    1
    42    18    52    1
    43    18    53    1
    44    19    54    1
    45    19    55    1
    46    20    56    1
    47    20    57    1
    48    21    26    1
    49    21    58    1
    50    21    59    1
    51    22    60    1
    52    22    61    1
    53    22    62    1
    54    23    26    2
    55    23    28    1
    56    24    29    1
    57    24    63    1
    58    24    64    1
    59    25    31    1
    60    25    65    1
    61    26    66    1
    62    27    68    1
    63    27    69    1
    64    27    70    1
    65    28    30    1
    66    28    71    1
    67    28    72    1
    68    29    30    1
    69    29    73    1
    70    29    74    1
    71    30    75    1
    72    31    76    1
    73    31    77    1
    74    31    78    1
    75    32    35    1
    76    33    34    1
    77    33    79    1
    78    34    36    1
    79    34    80    1
    80    34    81    1
    81    35    82    1
    82    35    83    1
    83    35    84    1
    84    36    38    1
    85    36    85    1
    86    37    38    1
    87    37    39    1
    88    37    86    1
    89    38    87    1
    90    39    88    1
    91    39    89    1
    92    39    90    1
    93    40    42    1
    94    40    91    1
    95    41    92    1
    96    41    93    1
    97    41    94    1
    98    42    43    1
    99    42    95    1
   100    42    96    1
   101    43    45    1
   102    43    97    1
   103    44    45    1
   104    44    46    1
   105    44    98    1
   106    45    99    1
   107    46   100    1
   108    46   101    1
   109    46   102    1
