@<TRIPOS>MOLECULE
IMPHY000055
 30 34 0 0 0
SMALL
GASTEIGER

@<TRIPOS>ATOM
      1 O           2.0000   -1.8708    0.0000 O.3     1  UNL1       -0.4526
      2 O           3.4519   -2.7090    0.0000 O.3     1  UNL1       -0.4526
      3 N           4.5518    1.8725    0.0000 N.ar    1  UNL1       -0.3418
      4 C           5.4178    1.3725    0.0000 C.ar    1  UNL1        0.0572
      5 C           3.6857    1.3725    0.0000 C.3     1  UNL1        0.0490
      6 C           3.6857    0.3725    0.0000 C.ar    1  UNL1       -0.0163
      7 C           4.5518   -0.1275    0.0000 C.ar    1  UNL1       -0.0073
      8 C           5.4178    0.3725    0.0000 C.ar    1  UNL1        0.0066
      9 C           6.3117    1.9072    0.0000 C.ar    1  UNL1        0.0005
     10 C           4.9169    2.7968    0.0000 C.ar    1  UNL1        0.0061
     11 C           2.7757   -0.1344    0.0000 C.ar    1  UNL1       -0.0107
     12 C           4.5678   -1.1690    0.0000 C.ar    1  UNL1       -0.0080
     13 C           5.9105    2.8164    0.0000 C.ar    1  UNL1       -0.0364
     14 C           2.7677   -1.1760    0.0000 C.ar    1  UNL1        0.1666
     15 C           3.6698   -1.6968    0.0000 C.ar    1  UNL1        0.1668
     16 C           6.3117   -0.1622    0.0000 C.ar    1  UNL1       -0.0520
     17 C           7.2178    1.3933    0.0000 C.ar    1  UNL1       -0.0525
     18 C           7.2178    0.3517    0.0000 C.ar    1  UNL1       -0.0605
     19 C           2.4220   -2.8164    0.0000 C.3     1  UNL1        0.2332
     20 H           3.4737    1.9551    0.0000 H       1  UNL1        0.0541
     21 H           3.0752    1.2648    0.0000 H       1  UNL1        0.0541
     22 H           4.5632    3.3060    0.0000 H       1  UNL1        0.0809
     23 H           2.2424    0.1818    0.0000 H       1  UNL1        0.0659
     24 H           5.1083   -1.4728    0.0000 H       1  UNL1        0.0661
     25 H           6.2439    3.3391    0.0000 H       1  UNL1        0.0639
     26 H           6.3046   -0.7821    0.0000 H       1  UNL1        0.0624
     27 H           7.7535    1.7054    0.0000 H       1  UNL1        0.0624
     28 H           7.7535    0.0396    0.0000 H       1  UNL1        0.0618
     29 H           1.8324   -3.0081    0.0000 H       1  UNL1        0.1166
     30 H           2.5507   -3.4229    0.0000 H       1  UNL1        0.1166
@<TRIPOS>BOND
     1     1    14    1
     2     1    19    1
     3     2    15    1
     4     2    19    1
     5     3     4   ar
     6     3     5    1
     7     3    10   ar
     8     4     8   ar
     9     4     9   ar
    10     5     6    1
    11     5    20    1
    12     5    21    1
    13     6     7   ar
    14     6    11   ar
    15     7     8    1
    16     7    12   ar
    17     8    16   ar
    18     9    13   ar
    19     9    17   ar
    20    10    13   ar
    21    10    22    1
    22    11    14   ar
    23    11    23    1
    24    12    15   ar
    25    12    24    1
    26    13    25    1
    27    14    15   ar
    28    16    18   ar
    29    16    26    1
    30    17    18   ar
    31    17    27    1
    32    18    28    1
    33    19    29    1
    34    19    30    1
