@<TRIPOS>MOLECULE
IMPHY001855
 120 126 0 0 0
SMALL
GASTEIGER

@<TRIPOS>ATOM
      1 O           6.8671    0.2657    0.0000 O.3     1  UNL1       -0.3448
      2 O           6.2440    2.7283    0.0000 O.3     1  UNL1       -0.3944
      3 O          14.0264    6.4243    0.0000 O.3     1  UNL1       -0.4802
      4 O          12.2945    6.4443    0.0000 O.2     1  UNL1       -0.2504
      5 O           7.7331   -1.2343    0.0000 O.3     1  UNL1       -0.3461
      6 O           5.1350   -0.7343    0.0000 O.3     1  UNL1       -0.3841
      7 O           5.1350   -2.7343    0.0000 O.3     1  UNL1       -0.3864
      8 O           6.8671   -3.7343    0.0000 O.3     1  UNL1       -0.3405
      9 O           5.1350   -3.7343    0.0000 O.3     1  UNL1       -0.3405
     10 O           6.8671   -5.7343    0.0000 O.3     1  UNL1       -0.3841
     11 O           5.1350   -6.7343    0.0000 O.3     1  UNL1       -0.3864
     12 O           3.4030   -5.7343    0.0000 O.3     1  UNL1       -0.3865
     13 O           2.5369   -4.2343    0.0000 O.3     1  UNL1       -0.3924
     14 C          10.4870    3.3962    0.0000 C.3     1  UNL1       -0.0194
     15 C          10.4832    2.3962    0.0000 C.3     1  UNL1       -0.0257
     16 C           9.5872    1.8650    0.0000 C.3     1  UNL1       -0.0249
     17 C          11.3550    3.8928    0.0000 C.3     1  UNL1       -0.0051
     18 C           8.6831    2.3823    0.0000 C.3     1  UNL1       -0.0255
     19 C           9.5952    3.9343    0.0000 C.3     1  UNL1       -0.0463
     20 C           7.7373    1.8507    0.0000 C.3     1  UNL1        0.0206
     21 C           8.6871    3.4240    0.0000 C.3     1  UNL1       -0.0485
     22 C          12.2191    3.3895    0.0000 C.2     1  UNL1       -0.0629
     23 C           9.6081    0.7802    0.0000 C.3     1  UNL1       -0.0447
     24 C          11.3473    1.8929    0.0000 C.3     1  UNL1       -0.0306
     25 C          13.1310    3.8928    0.0000 C.3     1  UNL1       -0.0031
     26 C          11.3429    4.9344    0.0000 C.3     1  UNL1       -0.0424
     27 C          13.1431    4.9344    0.0000 C.3     1  UNL1        0.0741
     28 C           7.7331    0.7657    0.0000 C.3     1  UNL1        0.0695
     29 C          10.1486    4.3372    0.0000 C.3     1  UNL1       -0.0585
     30 C          12.2430    5.4587    0.0000 C.3     1  UNL1       -0.0359
     31 C          10.4551    1.3683    0.0000 C.3     1  UNL1       -0.0590
     32 C           8.6748    0.2269    0.0000 C.3     1  UNL1       -0.0254
     33 C          12.2152    2.3895    0.0000 C.2     1  UNL1       -0.0836
     34 C          10.7152    4.6614    0.0000 C.3     1  UNL1       -0.0553
     35 C          14.0557    3.3252    0.0000 C.3     1  UNL1       -0.0403
     36 C          14.0806    5.4805    0.0000 C.3     1  UNL1       -0.0362
     37 C          15.0056    3.8495    0.0000 C.3     1  UNL1       -0.0343
     38 C           7.2440    2.7206    0.0000 C.3     1  UNL1        0.0522
     39 C           6.7373    1.8584    0.0000 C.3     1  UNL1       -0.0548
     40 C          15.0181    4.9344    0.0000 C.3     1  UNL1       -0.0468
     41 C          13.1546    5.9344    0.0000 C.2     1  UNL1        0.3115
     42 C          16.0055    3.8341    0.0000 C.3     1  UNL1       -0.0598
     43 C          15.4922    2.9759    0.0000 C.3     1  UNL1       -0.0598
     44 C           6.8671   -0.7343    0.0000 C.3     1  UNL1        0.1878
     45 C           6.0010   -1.2343    0.0000 C.3     1  UNL1        0.1341
     46 C           6.0010   -2.2343    0.0000 C.3     1  UNL1        0.1141
     47 C           7.7331   -2.2343    0.0000 C.3     1  UNL1        0.0796
     48 C           6.8671   -2.7343    0.0000 C.3     1  UNL1        0.1134
     49 C           6.0010   -4.2343    0.0000 C.3     1  UNL1        0.1884
     50 C           6.0010   -5.2343    0.0000 C.3     1  UNL1        0.1341
     51 C           5.1350   -5.7343    0.0000 C.3     1  UNL1        0.1141
     52 C           4.2690   -4.2343    0.0000 C.3     1  UNL1        0.1130
     53 C           4.2690   -5.2343    0.0000 C.3     1  UNL1        0.1119
     54 C           3.4030   -3.7343    0.0000 C.3     1  UNL1        0.0730
     55 H          11.2209    2.8184    0.0000 H       1  UNL1        0.0315
     56 H           7.9503    2.8130    0.0000 H       1  UNL1        0.0313
     57 H          10.0016    4.4025    0.0000 H       1  UNL1        0.0271
     58 H           9.2034    4.4148    0.0000 H       1  UNL1        0.0271
     59 H           8.4803    4.0084    0.0000 H       1  UNL1        0.0268
     60 H           8.0759    3.3202    0.0000 H       1  UNL1        0.0268
     61 H           9.8284    0.2006    0.0000 H       1  UNL1        0.0271
     62 H          10.2168    0.8980    0.0000 H       1  UNL1        0.0271
     63 H          10.9469    1.4195    0.0000 H       1  UNL1        0.0310
     64 H          11.7440    1.4164    0.0000 H       1  UNL1        0.0310
     65 H          13.1114    3.0431    0.0000 H       1  UNL1        0.0357
     66 H          11.1272    5.5156    0.0000 H       1  UNL1        0.0274
     67 H          10.7334    4.8213    0.0000 H       1  UNL1        0.0274
     68 H           7.1968    1.0768    0.0000 H       1  UNL1        0.0603
     69 H          10.7321    4.5470    0.0000 H       1  UNL1        0.0235
     70 H           9.9388    4.9206    0.0000 H       1  UNL1        0.0235
     71 H           9.5652    4.1274    0.0000 H       1  UNL1        0.0235
     72 H          12.6421    5.9331    0.0000 H       1  UNL1        0.0276
     73 H          11.8439    5.9331    0.0000 H       1  UNL1        0.0276
     74 H          10.1472    0.8302    0.0000 H       1  UNL1        0.0235
     75 H          10.9933    1.0604    0.0000 H       1  UNL1        0.0235
     76 H          10.7631    1.9065    0.0000 H       1  UNL1        0.0235
     77 H           8.2793   -0.2506    0.0000 H       1  UNL1        0.0290
     78 H           9.0776   -0.2445    0.0000 H       1  UNL1        0.0290
     79 H          12.7510    2.0775    0.0000 H       1  UNL1        0.0572
     80 H          11.1916    5.0581    0.0000 H       1  UNL1        0.0238
     81 H          10.3185    5.1378    0.0000 H       1  UNL1        0.0238
     82 H          10.2387    4.2647    0.0000 H       1  UNL1        0.0238
     83 H          13.6457    2.8601    0.0000 H       1  UNL1        0.0276
     84 H          14.4437    2.8417    0.0000 H       1  UNL1        0.0276
     85 H          14.4797    5.9550    0.0000 H       1  UNL1        0.0276
     86 H          13.6815    5.9550    0.0000 H       1  UNL1        0.0276
     87 H           7.8282    2.9281    0.0000 H       1  UNL1        0.0563
     88 H           7.1410    3.3320    0.0000 H       1  UNL1        0.0563
     89 H           6.7421    2.4784    0.0000 H       1  UNL1        0.0237
     90 H           6.1173    1.8632    0.0000 H       1  UNL1        0.0237
     91 H           6.7325    1.2385    0.0000 H       1  UNL1        0.0237
     92 H          15.6277    4.8213    0.0000 H       1  UNL1        0.0271
     93 H          15.2339    5.5156    0.0000 H       1  UNL1        0.0271
     94 H          15.9959    3.2142    0.0000 H       1  UNL1        0.0235
     95 H          16.6254    3.8245    0.0000 H       1  UNL1        0.0235
     96 H          16.0150    4.4540    0.0000 H       1  UNL1        0.0235
     97 H          14.9505    2.6742    0.0000 H       1  UNL1        0.0235
     98 H          15.7939    2.4342    0.0000 H       1  UNL1        0.0235
     99 H          16.0338    3.2776    0.0000 H       1  UNL1        0.0235
    100 H           6.3301   -0.4243    0.0000 H       1  UNL1        0.0937
    101 H           5.9381    3.2676    0.0000 H       1  UNL1        0.2094
    102 H          14.0336    7.0443    0.0000 H       1  UNL1        0.2951
    103 H           6.5631   -0.6143    0.0000 H       1  UNL1        0.0671
    104 H           6.0010   -2.8543    0.0000 H       1  UNL1        0.0648
    105 H           7.9451   -2.8169    0.0000 H       1  UNL1        0.0587
    106 H           8.3437   -2.1266    0.0000 H       1  UNL1        0.0587
    107 H           7.4040   -3.0443    0.0000 H       1  UNL1        0.0647
    108 H           5.1350   -0.1143    0.0000 H       1  UNL1        0.2101
    109 H           4.5981   -2.4243    0.0000 H       1  UNL1        0.2100
    110 H           6.5380   -4.5443    0.0000 H       1  UNL1        0.0938
    111 H           6.0010   -5.8543    0.0000 H       1  UNL1        0.0671
    112 H           4.5981   -6.0443    0.0000 H       1  UNL1        0.0648
    113 H           4.2690   -3.6143    0.0000 H       1  UNL1        0.0647
    114 H           3.7320   -4.9243    0.0000 H       1  UNL1        0.0647
    115 H           7.4040   -5.4243    0.0000 H       1  UNL1        0.2101
    116 H           3.8015   -3.2593    0.0000 H       1  UNL1        0.0584
    117 H           3.0044   -3.2593    0.0000 H       1  UNL1        0.0584
    118 H           5.6720   -7.0443    0.0000 H       1  UNL1        0.2100
    119 H           3.4030   -6.3543    0.0000 H       1  UNL1        0.2100
    120 H           2.0000   -3.9243    0.0000 H       1  UNL1        0.2095
@<TRIPOS>BOND
     1    28     1    1
     2    44     1    1
     3     2    38    1
     4     2   101    1
     5     3    41    1
     6     3   102    1
     7     4    41    2
     8     5    44    1
     9     5    47    1
    10    45     6    1
    11     6   108    1
    12    46     7    1
    13     7   109    1
    14    48     8    1
    15    49     8    1
    16     9    49    1
    17     9    52    1
    18    50    10    1
    19    10   115    1
    20    51    11    1
    21    11   118    1
    22    53    12    1
    23    12   119    1
    24    13    54    1
    25    13   120    1
    26    14    15    1
    27    14    17    1
    28    14    19    1
    29    14    29    1
    30    15    16    1
    31    15    24    1
    32    15    55    1
    33    16    18    1
    34    16    23    1
    35    16    31    1
    36    17    22    1
    37    17    26    1
    38    17    34    1
    39    18    20    1
    40    18    21    1
    41    18    56    1
    42    19    21    1
    43    19    57    1
    44    19    58    1
    45    20    28    1
    46    20    38    1
    47    20    39    1
    48    21    59    1
    49    21    60    1
    50    22    25    1
    51    22    33    2
    52    23    32    1
    53    23    61    1
    54    23    62    1
    55    24    33    1
    56    24    63    1
    57    24    64    1
    58    25    27    1
    59    25    35    1
    60    25    65    1
    61    26    30    1
    62    26    66    1
    63    26    67    1
    64    27    30    1
    65    27    36    1
    66    27    41    1
    67    28    32    1
    68    28    68    1
    69    29    69    1
    70    29    70    1
    71    29    71    1
    72    30    72    1
    73    30    73    1
    74    31    74    1
    75    31    75    1
    76    31    76    1
    77    32    77    1
    78    32    78    1
    79    33    79    1
    80    34    80    1
    81    34    81    1
    82    34    82    1
    83    35    37    1
    84    35    83    1
    85    35    84    1
    86    36    40    1
    87    36    85    1
    88    36    86    1
    89    37    40    1
    90    37    42    1
    91    37    43    1
    92    38    87    1
    93    38    88    1
    94    39    89    1
    95    39    90    1
    96    39    91    1
    97    40    92    1
    98    40    93    1
    99    42    94    1
   100    42    95    1
   101    42    96    1
   102    43    97    1
   103    43    98    1
   104    43    99    1
   105    44    45    1
   106    44   100    1
   107    45    46    1
   108    45   103    1
   109    46    48    1
   110    46   104    1
   111    47    48    1
   112    47   105    1
   113    47   106    1
   114    48   107    1
   115    49    50    1
   116    49   110    1
   117    50    51    1
   118    50   111    1
   119    51    53    1
   120    51   112    1
   121    52    53    1
   122    52    54    1
   123    52   113    1
   124    53   114    1
   125    54   116    1
   126    54   117    1
