@<TRIPOS>MOLECULE
IMPHY006638
 74 74 0 0 0
SMALL
GASTEIGER

@<TRIPOS>ATOM
      1 O           5.1350    2.2500    0.0000 O.3     1  UNL1       -0.4612
      2 O           2.5369   -0.2500    0.0000 O.3     1  UNL1       -0.5031
      3 O           2.5369   -2.2500    0.0000 O.3     1  UNL1       -0.4913
      4 O           6.0010   -2.2500    0.0000 O.3     1  UNL1       -0.4259
      5 O           6.8671    2.2500    0.0000 O.2     1  UNL1       -0.2512
      6 O           5.1350   -3.7500    0.0000 O.2     1  UNL1       -0.2507
      7 C           8.5991    1.2500    0.0000 C.3     1  UNL1       -0.0531
      8 C           7.7331    0.7500    0.0000 C.3     1  UNL1       -0.0529
      9 C           9.4651    0.7500    0.0000 C.3     1  UNL1       -0.0531
     10 C           6.8671    1.2500    0.0000 C.3     1  UNL1       -0.0497
     11 C          10.3312    1.2500    0.0000 C.3     1  UNL1       -0.0531
     12 C           6.0010    0.7500    0.0000 C.3     1  UNL1       -0.0154
     13 C          11.1972    0.7500    0.0000 C.3     1  UNL1       -0.0531
     14 C          12.0632    1.2500    0.0000 C.3     1  UNL1       -0.0531
     15 C           5.1350    1.2500    0.0000 C.3     1  UNL1        0.1071
     16 C          12.9292    0.7500    0.0000 C.3     1  UNL1       -0.0531
     17 C           4.2690    0.7500    0.0000 C.3     1  UNL1        0.0133
     18 C          13.7953    1.2500    0.0000 C.3     1  UNL1       -0.0531
     19 C          14.6613    0.7500    0.0000 C.3     1  UNL1       -0.0533
     20 C           4.2690   -0.2500    0.0000 C.ar    1  UNL1        0.0047
     21 C          15.5273    1.2500    0.0000 C.3     1  UNL1       -0.0559
     22 C           3.4030   -0.7500    0.0000 C.ar    1  UNL1        0.1620
     23 C           5.1350   -0.7500    0.0000 C.ar    1  UNL1       -0.0122
     24 C          16.3933    0.7500    0.0000 C.3     1  UNL1       -0.0653
     25 C           6.0010    2.7500    0.0000 C.2     1  UNL1        0.3042
     26 C           3.4030   -1.7500    0.0000 C.ar    1  UNL1        0.1650
     27 C           5.1350   -1.7500    0.0000 C.ar    1  UNL1        0.1356
     28 C           4.2690   -2.2500    0.0000 C.ar    1  UNL1        0.0261
     29 C           6.0010    3.7500    0.0000 C.3     1  UNL1        0.0332
     30 C           2.5369   -3.2500    0.0000 C.3     1  UNL1        0.0790
     31 C           6.0010   -3.2500    0.0000 C.2     1  UNL1        0.3092
     32 C           6.8671   -3.7500    0.0000 C.3     1  UNL1        0.0336
     33 H           8.9976    1.7250    0.0000 H       1  UNL1        0.0265
     34 H           8.2006    1.7250    0.0000 H       1  UNL1        0.0265
     35 H           7.3346    0.2751    0.0000 H       1  UNL1        0.0265
     36 H           8.1316    0.2751    0.0000 H       1  UNL1        0.0265
     37 H           9.0666    0.2751    0.0000 H       1  UNL1        0.0265
     38 H           9.8637    0.2751    0.0000 H       1  UNL1        0.0265
     39 H           7.2656    1.7250    0.0000 H       1  UNL1        0.0266
     40 H           6.4685    1.7250    0.0000 H       1  UNL1        0.0266
     41 H          10.7297    1.7250    0.0000 H       1  UNL1        0.0265
     42 H           9.9326    1.7250    0.0000 H       1  UNL1        0.0265
     43 H           5.6025    0.2751    0.0000 H       1  UNL1        0.0301
     44 H           6.3996    0.2751    0.0000 H       1  UNL1        0.0301
     45 H          10.7987    0.2751    0.0000 H       1  UNL1        0.0265
     46 H          11.5957    0.2751    0.0000 H       1  UNL1        0.0265
     47 H          12.4617    1.7250    0.0000 H       1  UNL1        0.0265
     48 H          11.6647    1.7250    0.0000 H       1  UNL1        0.0265
     49 H           5.6720    1.5600    0.0000 H       1  UNL1        0.0737
     50 H          12.5307    0.2751    0.0000 H       1  UNL1        0.0265
     51 H          13.3278    0.2751    0.0000 H       1  UNL1        0.0265
     52 H           4.0569    1.3326    0.0000 H       1  UNL1        0.0350
     53 H           3.6584    0.6423    0.0000 H       1  UNL1        0.0350
     54 H          14.1938    1.7250    0.0000 H       1  UNL1        0.0265
     55 H          13.3967    1.7250    0.0000 H       1  UNL1        0.0265
     56 H          14.2628    0.2751    0.0000 H       1  UNL1        0.0265
     57 H          15.0598    0.2751    0.0000 H       1  UNL1        0.0265
     58 H          15.9258    1.7250    0.0000 H       1  UNL1        0.0263
     59 H          15.1288    1.7250    0.0000 H       1  UNL1        0.0263
     60 H           5.6720   -0.4400    0.0000 H       1  UNL1        0.0658
     61 H          16.0833    0.2131    0.0000 H       1  UNL1        0.0230
     62 H          16.9303    0.4400    0.0000 H       1  UNL1        0.0230
     63 H          16.7033    1.2869    0.0000 H       1  UNL1        0.0230
     64 H           4.2690   -2.8700    0.0000 H       1  UNL1        0.0692
     65 H           6.6210    3.7500    0.0000 H       1  UNL1        0.0342
     66 H           6.0010    4.3700    0.0000 H       1  UNL1        0.0342
     67 H           5.3810    3.7500    0.0000 H       1  UNL1        0.0342
     68 H           2.0000   -0.5600    0.0000 H       1  UNL1        0.2923
     69 H           1.9169   -3.2500    0.0000 H       1  UNL1        0.0660
     70 H           2.5369   -3.8700    0.0000 H       1  UNL1        0.0660
     71 H           3.1569   -3.2500    0.0000 H       1  UNL1        0.0660
     72 H           6.5571   -4.2869    0.0000 H       1  UNL1        0.0342
     73 H           7.4040   -4.0600    0.0000 H       1  UNL1        0.0342
     74 H           7.1771   -3.2131    0.0000 H       1  UNL1        0.0342
@<TRIPOS>BOND
     1     1    15    1
     2     1    25    1
     3     2    22    1
     4     2    68    1
     5     3    26    1
     6     3    30    1
     7     4    27    1
     8     4    31    1
     9     5    25    2
    10     6    31    2
    11     7     8    1
    12     7     9    1
    13     7    33    1
    14     7    34    1
    15     8    10    1
    16     8    35    1
    17     8    36    1
    18     9    11    1
    19     9    37    1
    20     9    38    1
    21    10    12    1
    22    10    39    1
    23    10    40    1
    24    11    13    1
    25    11    41    1
    26    11    42    1
    27    12    15    1
    28    12    43    1
    29    12    44    1
    30    13    14    1
    31    13    45    1
    32    13    46    1
    33    14    16    1
    34    14    47    1
    35    14    48    1
    36    15    17    1
    37    15    49    1
    38    16    18    1
    39    16    50    1
    40    16    51    1
    41    17    20    1
    42    17    52    1
    43    17    53    1
    44    18    19    1
    45    18    54    1
    46    18    55    1
    47    19    21    1
    48    19    56    1
    49    19    57    1
    50    20    22   ar
    51    20    23   ar
    52    21    24    1
    53    21    58    1
    54    21    59    1
    55    22    26   ar
    56    23    27   ar
    57    23    60    1
    58    24    61    1
    59    24    62    1
    60    24    63    1
    61    25    29    1
    62    26    28   ar
    63    27    28   ar
    64    28    64    1
    65    29    65    1
    66    29    66    1
    67    29    67    1
    68    30    69    1
    69    30    70    1
    70    30    71    1
    71    31    32    1
    72    32    72    1
    73    32    73    1
    74    32    74    1
