@<TRIPOS>MOLECULE
IMPHY003308
 69 71 0 0 0
SMALL
GASTEIGER

@<TRIPOS>ATOM
      1 NA         12.7425    3.7132    0.0000 Na      1  UNL1        0.0000
      2 O           7.0628    1.4382    0.0000 O.3     2  UNL2        0.0000
      3 O           7.9506   -3.0932    0.0000 O.3     2  UNL2        0.0000
      4 O           2.5357   -3.1141    0.0000 O.3     2  UNL2        0.0000
      5 O          11.7640    3.5070    0.0000 O.co2   2  UNL2       -0.5000
      6 O          12.1212    1.8121    0.0000 O.co2   2  UNL2       -0.5000
      7 C           7.9288   -0.0618    0.0000 C.3     2  UNL2        0.0000
      8 C           7.9288   -1.0618    0.0000 C.3     2  UNL2        0.0000
      9 C           7.0628   -1.5618    0.0000 C.3     2  UNL2        0.0000
     10 C           6.1968   -1.0618    0.0000 C.3     2  UNL2        0.0000
     11 C           5.2868   -1.5686    0.0000 C.3     2  UNL2        0.0000
     12 C           8.8750    0.2430    0.0000 C.3     2  UNL2        0.0000
     13 C           7.0628    0.4382    0.0000 C.3     2  UNL2        0.0000
     14 C           6.1968   -0.0618    0.0000 C.3     2  UNL2        0.0000
     15 C           5.2787   -2.6102    0.0000 C.3     2  UNL2        0.0000
     16 C           8.8750   -1.3665    0.0000 C.3     2  UNL2        0.0000
     17 C           7.0789   -2.6033    0.0000 C.3     2  UNL2        0.0000
     18 C           9.4586   -0.5618    0.0000 C.3     2  UNL2        0.0000
     19 C           6.1808   -3.1310    0.0000 C.3     2  UNL2        0.0000
     20 C           4.3599   -1.0045    0.0000 C.3     2  UNL2        0.0000
     21 C           7.9288    0.9382    0.0000 C.3     2  UNL2        0.0000
     22 C           9.1857    1.1935    0.0000 C.3     2  UNL2        0.0000
     23 C           4.3433   -3.1599    0.0000 C.3     2  UNL2        0.0000
     24 C           5.2945   -0.5686    0.0000 C.3     2  UNL2        0.0000
     25 C           3.4120   -1.5325    0.0000 C.3     2  UNL2        0.0000
     26 C           3.4037   -2.6174    0.0000 C.3     2  UNL2        0.0000
     27 C          10.1642    1.3997    0.0000 C.3     2  UNL2        0.0000
     28 C           8.5179    1.9378    0.0000 C.3     2  UNL2        0.0000
     29 C          10.4749    2.3502    0.0000 C.3     2  UNL2        0.0000
     30 C          11.4534    2.5564    0.0000 C.2     2  UNL2        0.0000
     31 H           8.0188   -1.9070    0.0000 H       2  UNL2        0.0000
     32 H           7.8022   -1.9811    0.0000 H       2  UNL2        0.0000
     33 H           6.9329   -0.6368    0.0000 H       2  UNL2        0.0000
     34 H           9.7148    0.3748    0.0000 H       2  UNL2        0.0000
     35 H           6.5259    0.7482    0.0000 H       2  UNL2        0.0000
     36 H           5.9847    0.5208    0.0000 H       2  UNL2        0.0000
     37 H           5.5862   -0.1694    0.0000 H       2  UNL2        0.0000
     38 H           5.2820   -3.4602    0.0000 H       2  UNL2        0.0000
     39 H           8.6240   -1.9334    0.0000 H       2  UNL2        0.0000
     40 H           9.4124   -1.6757    0.0000 H       2  UNL2        0.0000
     41 H           7.6116   -2.2861    0.0000 H       2  UNL2        0.0000
     42 H           9.9195   -0.9765    0.0000 H       2  UNL2        0.0000
     43 H           9.9195   -0.1470    0.0000 H       2  UNL2        0.0000
     44 H           5.7835   -3.6070    0.0000 H       2  UNL2        0.0000
     45 H           6.5818   -3.6039    0.0000 H       2  UNL2        0.0000
     46 H           4.7681   -0.5379    0.0000 H       2  UNL2        0.0000
     47 H           3.9700   -0.5225    0.0000 H       2  UNL2        0.0000
     48 H           8.5488    0.9382    0.0000 H       2  UNL2        0.0000
     49 H           7.9288    1.5582    0.0000 H       2  UNL2        0.0000
     50 H           7.3088    0.9382    0.0000 H       2  UNL2        0.0000
     51 H           9.3783    1.7828    0.0000 H       2  UNL2        0.0000
     52 H           3.9460   -3.6359    0.0000 H       2  UNL2        0.0000
     53 H           4.7443   -3.6328    0.0000 H       2  UNL2        0.0000
     54 H           5.9145   -0.5734    0.0000 H       2  UNL2        0.0000
     55 H           5.2993    0.0513    0.0000 H       2  UNL2        0.0000
     56 H           4.6745   -0.5639    0.0000 H       2  UNL2        0.0000
     57 H           3.2075   -0.9472    0.0000 H       2  UNL2        0.0000
     58 H           2.8004   -1.6339    0.0000 H       2  UNL2        0.0000
     59 H           2.8686   -2.3043    0.0000 H       2  UNL2        0.0000
     60 H           6.5259    1.7482    0.0000 H       2  UNL2        0.0000
     61 H          10.1848    0.7800    0.0000 H       2  UNL2        0.0000
     62 H          10.7780    1.3124    0.0000 H       2  UNL2        0.0000
     63 H           7.9578   -3.7132    0.0000 H       2  UNL2        0.0000
     64 H           8.9793    2.3519    0.0000 H       2  UNL2        0.0000
     65 H           8.1038    2.3993    0.0000 H       2  UNL2        0.0000
     66 H           8.0564    1.5237    0.0000 H       2  UNL2        0.0000
     67 H           2.0000   -2.8020    0.0000 H       2  UNL2        0.0000
     68 H          10.4543    2.9699    0.0000 H       2  UNL2        0.0000
     69 H           9.8611    2.4376    0.0000 H       2  UNL2        0.0000
@<TRIPOS>UNITY_ATOM_ATTR
1 1
charge 1
5 1
charge -1
@<TRIPOS>BOND
     1    13     2    1
     2     2    60    1
     3    17     3    1
     4     3    63    1
     5    26     4    1
     6     4    67    1
     7     5    30   ar
     8     6    30   ar
     9     7     8    1
    10     7    12    1
    11     7    13    1
    12     7    21    1
    13     8     9    1
    14     8    16    1
    15     8    31    1
    16     9    10    1
    17     9    17    1
    18     9    32    1
    19    10    11    1
    20    10    14    1
    21    10    33    1
    22    11    15    1
    23    11    20    1
    24    11    24    1
    25    12    18    1
    26    12    22    1
    27    12    34    1
    28    13    14    1
    29    13    35    1
    30    14    36    1
    31    14    37    1
    32    15    19    1
    33    15    23    1
    34    15    38    1
    35    16    18    1
    36    16    39    1
    37    16    40    1
    38    17    19    1
    39    17    41    1
    40    18    42    1
    41    18    43    1
    42    19    44    1
    43    19    45    1
    44    20    25    1
    45    20    46    1
    46    20    47    1
    47    21    48    1
    48    21    49    1
    49    21    50    1
    50    22    27    1
    51    22    28    1
    52    22    51    1
    53    23    26    1
    54    23    52    1
    55    23    53    1
    56    24    54    1
    57    24    55    1
    58    24    56    1
    59    25    26    1
    60    25    57    1
    61    25    58    1
    62    26    59    1
    63    27    29    1
    64    27    61    1
    65    27    62    1
    66    28    64    1
    67    28    65    1
    68    28    66    1
    69    29    30    1
    70    29    68    1
    71    29    69    1
