@<TRIPOS>MOLECULE
IMPHY010450
 34 35 0 0 0
SMALL
GASTEIGER
****
Created with ChemWriter - http://chemwriter.com
@<TRIPOS>ATOM
      1 C           7.5777   -2.4306    0.0000 C.3     1  UNL1        0.0005
      2 C          -0.8420    4.3750    0.0000 C.3     1  UNL1        0.0005
      3 C           5.8938   -1.4583    0.0000 C.3     1  UNL1        0.0081
      4 C          -0.8420    2.4306    0.0000 C.3     1  UNL1        0.0081
      5 C           5.0518    2.9167    0.0000 C.3     1  UNL1        0.0378
      6 C          -0.4861   -0.8420    0.0000 C.3     1  UNL1        0.0155
      7 C          -0.9722    0.0000    0.0000 C.3     1  UNL1        0.0155
      8 C           7.5777   -1.4583    0.0000 C.3     1  UNL1        0.0077
      9 C           0.0000    3.8889    0.0000 C.3     1  UNL1        0.0077
     10 C           2.5259   -0.4861    0.0000 C.3     1  UNL1        0.0653
     11 C           6.7358   -0.9722    0.0000 C.3     1  UNL1        0.0622
     12 C           0.0000    2.9167    0.0000 C.3     1  UNL1        0.0621
     13 C           5.0518    1.9444    0.0000 C.ar    1  UNL1        0.0559
     14 C           4.2098    0.4861    0.0000 C.ar    1  UNL1        0.0601
     15 C           1.6839    0.0000    0.0000 C.2     1  UNL1        0.0565
     16 C           5.8938    0.4861    0.0000 C.ar    1  UNL1        0.1119
     17 C           0.8420    1.4583    0.0000 C.2     1  UNL1        0.1083
     18 C           6.7358    0.0000    0.0000 C.2     1  UNL1        0.1788
     19 C           0.8420    2.4306    0.0000 C.2     1  UNL1        0.1785
     20 C           4.2098    1.4583    0.0000 C.ar    1  UNL1        0.1942
     21 C           5.8938    1.4583    0.0000 C.ar    1  UNL1        0.2005
     22 C           5.0518    0.0000    0.0000 C.ar    1  UNL1        0.2009
     23 C           1.6839    0.9722    0.0000 C.2     1  UNL1        0.2002
     24 C           0.8420   -0.4861    0.0000 C.2     1  UNL1        0.1786
     25 C           0.0000    0.9722    0.0000 C.2     1  UNL1        0.1849
     26 C           0.0000    0.0000    0.0000 C.3     1  UNL1        0.1107
     27 O           7.5777    0.4861    0.0000 O.2     1  UNL1       -0.2911
     28 O           1.6839    2.9167    0.0000 O.2     1  UNL1       -0.2911
     29 O           3.3679    1.9444    0.0000 O.3     1  UNL1       -0.2870
     30 O           6.7358    1.9444    0.0000 O.3     1  UNL1       -0.2866
     31 O           5.0518   -0.9722    0.0000 O.3     1  UNL1       -0.2866
     32 O           2.5259    1.4583    0.0000 O.2     1  UNL1       -0.2866
     33 O           0.8420   -1.4583    0.0000 O.2     1  UNL1       -0.2911
     34 O          -0.8420    1.4583    0.0000 O.2     1  UNL1       -0.2907
@<TRIPOS>BOND
     1     1     8    1
     2     2     9    1
     3     3    11    1
     4     4    12    1
     5     5    13    1
     6     6    26    1
     7     7    26    1
     8     8    11    1
     9     9    12    1
    10    10    14    1
    11    10    15    1
    12    11    18    1
    13    12    19    1
    14    13    20   ar
    15    13    21   ar
    16    14    20   ar
    17    14    22   ar
    18    15    23    1
    19    15    24    2
    20    16    18    1
    21    16    21   ar
    22    16    22   ar
    23    17    19    1
    24    17    23    2
    25    17    25    1
    26    18    27    2
    27    19    28    2
    28    20    29    1
    29    21    30    1
    30    22    31    1
    31    23    32    1
    32    24    26    1
    33    24    33    1
    34    25    26    1
    35    25    34    2
