@<TRIPOS>MOLECULE
IMPHY008660
 68 72 0 0 0
SMALL
GASTEIGER

@<TRIPOS>ATOM
      1 O           3.2186    2.6179    0.0000 O.3     1  UNL1       -0.3905
      2 O           6.4315    3.8255    0.0000 O.2     1  UNL1       -0.2964
      3 O          10.3986   -0.6525    0.0000 O.3     1  UNL1       -0.4554
      4 O           3.1863   -2.2349    0.0000 O.3     1  UNL1       -0.4679
      5 O           2.4000   -0.6916    0.0000 O.2     1  UNL1       -0.2509
      6 O          11.1371    0.9979    0.0000 O.2     1  UNL1       -0.2505
      7 O           9.1675   -3.8255    0.0000 O.2     1  UNL1       -0.4706
      8 C           5.4537    1.0110    0.0000 C.3     1  UNL1        0.0369
      9 C           6.6747    0.1453    0.0000 C.3     1  UNL1       -0.0072
     10 C           4.1820    0.2163    0.0000 C.3     1  UNL1       -0.0108
     11 C           3.4049    0.8457    0.0000 C.3     1  UNL1       -0.0040
     12 C           5.1949    1.9769    0.0000 C.3     1  UNL1        0.0482
     13 C           3.7632    1.7792    0.0000 C.3     1  UNL1        0.0704
     14 C           7.5038    0.7045    0.0000 C.2     1  UNL1       -0.0644
     15 C           5.9315    2.9595    0.0000 C.2     1  UNL1        0.1459
     16 C           7.2281    1.6658    0.0000 C.3     1  UNL1       -0.0192
     17 C           6.7314   -0.8948    0.0000 C.3     1  UNL1       -0.0447
     18 C           8.5276   -0.7761    0.0000 C.3     1  UNL1        0.0310
     19 C           8.4469    0.2624    0.0000 C.2     1  UNL1       -0.0497
     20 C           7.6640   -1.3586    0.0000 C.3     1  UNL1       -0.0396
     21 C           5.1948    0.0451    0.0000 C.3     1  UNL1       -0.0520
     22 C           4.1297   -0.7823    0.0000 C.3     1  UNL1        0.0492
     23 C           2.4390    1.1045    0.0000 C.3     1  UNL1       -0.0571
     24 C           2.6978    0.1385    0.0000 C.3     1  UNL1       -0.0571
     25 C           9.4991   -1.2593    0.0000 C.3     1  UNL1        0.1399
     26 C           9.3321    0.8897    0.0000 C.3     1  UNL1        0.0670
     27 C           8.6050   -1.7731    0.0000 C.3     1  UNL1       -0.0521
     28 C           3.2387   -1.2363    0.0000 C.2     1  UNL1        0.3071
     29 C          10.3145    0.4292    0.0000 C.2     1  UNL1        0.3118
     30 C           9.5650   -2.2571    0.0000 C.ar    1  UNL1        0.0312
     31 C          10.4110   -2.7903    0.0000 C.ar    1  UNL1       -0.0172
     32 C           8.7965   -2.8969    0.0000 C.ar    1  UNL1        0.0984
     33 C          10.1653   -3.7596    0.0000 C.ar    1  UNL1        0.0921
     34 C           2.2953   -2.6889    0.0000 C.3     1  UNL1        0.0817
     35 H           5.9700   -0.3300    0.0000 H       1  UNL1        0.0355
     36 H           3.6156   -0.0358    0.0000 H       1  UNL1        0.0321
     37 H           4.9749    2.7979    0.0000 H       1  UNL1        0.0406
     38 H           3.1466    1.7144    0.0000 H       1  UNL1        0.0606
     39 H           7.2332    2.2858    0.0000 H       1  UNL1        0.0318
     40 H           7.8424    1.7496    0.0000 H       1  UNL1        0.0318
     41 H           6.5543   -1.4890    0.0000 H       1  UNL1        0.0272
     42 H           6.1156   -0.8221    0.0000 H       1  UNL1        0.0272
     43 H           8.0936   -1.8057    0.0000 H       1  UNL1        0.0275
     44 H           7.2970   -1.8583    0.0000 H       1  UNL1        0.0275
     45 H           5.7937   -0.1154    0.0000 H       1  UNL1        0.0239
     46 H           5.0343   -0.5538    0.0000 H       1  UNL1        0.0239
     47 H           4.5960    0.2056    0.0000 H       1  UNL1        0.0239
     48 H           4.7451   -0.7067    0.0000 H       1  UNL1        0.0381
     49 H           4.3110   -1.3752    0.0000 H       1  UNL1        0.0381
     50 H           3.1362   -0.2999    0.0000 H       1  UNL1        0.0236
     51 H           2.2594   -0.2999    0.0000 H       1  UNL1        0.0236
     52 H           2.2594    0.5770    0.0000 H       1  UNL1        0.0236
     53 H           2.2785    0.5056    0.0000 H       1  UNL1        0.0236
     54 H           1.8401    1.2649    0.0000 H       1  UNL1        0.0236
     55 H           2.5994    1.7034    0.0000 H       1  UNL1        0.0236
     56 H          10.0558   -1.5321    0.0000 H       1  UNL1        0.0795
     57 H           8.8924    1.3268    0.0000 H       1  UNL1        0.0423
     58 H           9.6875    1.3978    0.0000 H       1  UNL1        0.0423
     59 H           9.2232   -1.7251    0.0000 H       1  UNL1        0.0239
     60 H           8.6530   -2.3913    0.0000 H       1  UNL1        0.0239
     61 H           7.9869   -1.8211    0.0000 H       1  UNL1        0.0239
     62 H           2.5994    2.5855    0.0000 H       1  UNL1        0.2098
     63 H          10.9867   -2.5602    0.0000 H       1  UNL1        0.0653
     64 H           8.1955   -2.7446    0.0000 H       1  UNL1        0.1033
     65 H          10.5620   -4.2361    0.0000 H       1  UNL1        0.1029
     66 H           2.5768   -3.2413    0.0000 H       1  UNL1        0.0661
     67 H           1.7429   -2.9704    0.0000 H       1  UNL1        0.0661
     68 H           2.0139   -2.1365    0.0000 H       1  UNL1        0.0661
@<TRIPOS>BOND
     1    13     1    1
     2     1    62    1
     3     2    15    2
     4     3    25    1
     5     3    29    1
     6     4    28    1
     7     4    34    1
     8     5    28    2
     9     6    29    2
    10     7    32   ar
    11     7    33   ar
    12     8     9    1
    13     8    10    1
    14     8    15    1
    15     8    21    1
    16     9    14    1
    17     9    17    1
    18     9    35    1
    19    10    11    1
    20    10    22    1
    21    10    36    1
    22    11    13    1
    23    11    23    1
    24    11    24    1
    25    12    13    1
    26    12    15    1
    27    12    16    1
    28    12    37    1
    29    13    38    1
    30    14    16    1
    31    14    19    2
    32    16    39    1
    33    16    40    1
    34    17    20    1
    35    17    41    1
    36    17    42    1
    37    18    19    1
    38    18    20    1
    39    18    25    1
    40    18    27    1
    41    19    26    1
    42    20    43    1
    43    20    44    1
    44    21    45    1
    45    21    46    1
    46    21    47    1
    47    22    28    1
    48    22    48    1
    49    22    49    1
    50    23    53    1
    51    23    54    1
    52    23    55    1
    53    24    50    1
    54    24    51    1
    55    24    52    1
    56    25    30    1
    57    25    56    1
    58    26    29    1
    59    26    57    1
    60    26    58    1
    61    27    59    1
    62    27    60    1
    63    27    61    1
    64    30    31   ar
    65    30    32   ar
    66    31    33   ar
    67    31    63    1
    68    32    64    1
    69    33    65    1
    70    34    66    1
    71    34    67    1
    72    34    68    1
