@<TRIPOS>MOLECULE
IMPHY016372
 21 21 0 0 0
SMALL
GASTEIGER

@<TRIPOS>ATOM
      1 O           2.0000   -1.2500    0.0000 O.3     1  UNL1       -0.4951
      2 O           2.8660    2.2500    0.0000 O.2     1  UNL1       -0.2924
      3 C           3.7320    0.7500    0.0000 C.ar    1  UNL1        0.0206
      4 C           2.8660    0.2500    0.0000 C.ar    1  UNL1       -0.0095
      5 C           2.8660   -0.7500    0.0000 C.ar    1  UNL1        0.1208
      6 C           4.5981    0.2500    0.0000 C.ar    1  UNL1       -0.0510
      7 C           3.7320   -1.2500    0.0000 C.ar    1  UNL1       -0.0199
      8 C           4.5981   -0.7500    0.0000 C.ar    1  UNL1       -0.0576
      9 C           3.7320    1.7500    0.0000 C.2     1  UNL1        0.1602
     10 C           4.5981    2.2500    0.0000 C.3     1  UNL1       -0.0014
     11 C           2.0000   -2.2500    0.0000 C.3     1  UNL1        0.0788
     12 H           2.3291    0.5600    0.0000 H       1  UNL1        0.0661
     13 H           5.1350    0.5600    0.0000 H       1  UNL1        0.0625
     14 H           3.7320   -1.8700    0.0000 H       1  UNL1        0.0654
     15 H           5.1350   -1.0600    0.0000 H       1  UNL1        0.0619
     16 H           4.9081    1.7131    0.0000 H       1  UNL1        0.0309
     17 H           5.1350    2.5600    0.0000 H       1  UNL1        0.0309
     18 H           4.2881    2.7869    0.0000 H       1  UNL1        0.0309
     19 H           1.3800   -2.2500    0.0000 H       1  UNL1        0.0660
     20 H           2.0000   -2.8700    0.0000 H       1  UNL1        0.0660
     21 H           2.6200   -2.2500    0.0000 H       1  UNL1        0.0660
@<TRIPOS>BOND
     1     1     5    1
     2     1    11    1
     3     2     9    2
     4     3     4   ar
     5     3     6   ar
     6     3     9    1
     7     4     5   ar
     8     4    12    1
     9     5     7   ar
    10     6     8   ar
    11     6    13    1
    12     7     8   ar
    13     7    14    1
    14     8    15    1
    15     9    10    1
    16    10    16    1
    17    10    17    1
    18    10    18    1
    19    11    19    1
    20    11    20    1
    21    11    21    1
