@<TRIPOS>MOLECULE
IMPHY005070
 52 53 0 0 0
SMALL
GASTEIGER

@<TRIPOS>ATOM
      1 O           8.9942   -2.0670    0.0000 O.3     1  UNL1       -0.4847
      2 O           8.9942    0.9330    0.0000 O.2     1  UNL1       -0.2914
      3 O           7.2458    0.9676    0.0000 O.3     1  UNL1       -0.5059
      4 O          12.4583    0.9330    0.0000 O.2     1  UNL1       -0.2977
      5 C           9.8602   -1.5670    0.0000 C.3     1  UNL1        0.1149
      6 C           9.8602   -0.5670    0.0000 C.3     1  UNL1        0.0619
      7 C          10.7263   -0.0670    0.0000 C.3     1  UNL1       -0.0328
      8 C           8.9942   -0.0670    0.0000 C.2     1  UNL1        0.1770
      9 C          10.8602   -1.5670    0.0000 C.3     1  UNL1       -0.0245
     10 C          10.3602   -2.4330    0.0000 C.3     1  UNL1       -0.0245
     11 C           8.1282   -0.5670    0.0000 C.ar    1  UNL1        0.1007
     12 C           8.1282   -1.5670    0.0000 C.ar    1  UNL1        0.1356
     13 C          10.7263    0.9330    0.0000 C.3     1  UNL1        0.0063
     14 C           7.2342   -2.1016    0.0000 C.ar    1  UNL1       -0.0158
     15 C           7.2342   -0.0323    0.0000 C.ar    1  UNL1        0.1311
     16 C           6.3282   -1.5878    0.0000 C.ar    1  UNL1       -0.0404
     17 C           5.4641   -2.0911    0.0000 C.3     1  UNL1       -0.0275
     18 C           6.3282   -0.5462    0.0000 C.ar    1  UNL1       -0.0161
     19 C           4.5961   -1.5945    0.0000 C.3     1  UNL1       -0.0491
     20 C          11.5923    1.4330    0.0000 C.2     1  UNL1        0.1303
     21 C           3.7320   -2.0978    0.0000 C.3     1  UNL1       -0.0530
     22 C           2.8641   -1.6012    0.0000 C.3     1  UNL1       -0.0559
     23 C          11.5923    2.4330    0.0000 C.3     1  UNL1       -0.0061
     24 C           2.0000   -2.1045    0.0000 C.3     1  UNL1       -0.0653
     25 H          10.3972   -0.8770    0.0000 H       1  UNL1        0.0420
     26 H          10.9383   -0.6496    0.0000 H       1  UNL1        0.0277
     27 H          11.3368    0.0407    0.0000 H       1  UNL1        0.0277
     28 H          10.8602   -2.1870    0.0000 H       1  UNL1        0.0268
     29 H          11.4802   -1.5670    0.0000 H       1  UNL1        0.0268
     30 H          10.8602   -0.9470    0.0000 H       1  UNL1        0.0268
     31 H           9.8233   -2.7430    0.0000 H       1  UNL1        0.0268
     32 H          10.6702   -2.9700    0.0000 H       1  UNL1        0.0268
     33 H          10.8972   -2.1230    0.0000 H       1  UNL1        0.0268
     34 H          10.5142    1.5156    0.0000 H       1  UNL1        0.0342
     35 H          10.1157    0.8254    0.0000 H       1  UNL1        0.0342
     36 H           7.2414   -2.7216    0.0000 H       1  UNL1        0.0657
     37 H           5.0674   -2.5676    0.0000 H       1  UNL1        0.0313
     38 H           5.8644   -2.5645    0.0000 H       1  UNL1        0.0313
     39 H           5.7924   -0.2341    0.0000 H       1  UNL1        0.0657
     40 H           4.9928   -1.1180    0.0000 H       1  UNL1        0.0268
     41 H           4.1958   -1.1211    0.0000 H       1  UNL1        0.0268
     42 H           3.3353   -2.5743    0.0000 H       1  UNL1        0.0265
     43 H           4.1324   -2.5712    0.0000 H       1  UNL1        0.0265
     44 H           3.2608   -1.1247    0.0000 H       1  UNL1        0.0263
     45 H           2.4637   -1.1278    0.0000 H       1  UNL1        0.0263
     46 H          12.2123    2.4330    0.0000 H       1  UNL1        0.0306
     47 H          11.5923    3.0530    0.0000 H       1  UNL1        0.0306
     48 H          10.9723    2.4330    0.0000 H       1  UNL1        0.0306
     49 H           6.7125    1.2838    0.0000 H       1  UNL1        0.2922
     50 H           1.6879   -1.5688    0.0000 H       1  UNL1        0.0230
     51 H           1.4643   -2.4166    0.0000 H       1  UNL1        0.0230
     52 H           2.3121   -2.6402    0.0000 H       1  UNL1        0.0230
@<TRIPOS>BOND
     1     1     5    1
     2     1    12    1
     3     2     8    2
     4     3    15    1
     5     3    49    1
     6     4    20    2
     7     5     6    1
     8     5     9    1
     9     5    10    1
    10     6     7    1
    11     6     8    1
    12     6    25    1
    13     7    13    1
    14     7    26    1
    15     7    27    1
    16     8    11    1
    17     9    28    1
    18     9    29    1
    19     9    30    1
    20    10    31    1
    21    10    32    1
    22    10    33    1
    23    11    12   ar
    24    11    15   ar
    25    12    14   ar
    26    13    20    1
    27    13    34    1
    28    13    35    1
    29    14    16   ar
    30    14    36    1
    31    15    18   ar
    32    16    17    1
    33    16    18   ar
    34    17    19    1
    35    17    37    1
    36    17    38    1
    37    18    39    1
    38    19    21    1
    39    19    40    1
    40    19    41    1
    41    20    23    1
    42    21    22    1
    43    21    42    1
    44    21    43    1
    45    22    24    1
    46    22    44    1
    47    22    45    1
    48    23    46    1
    49    23    47    1
    50    23    48    1
    51    24    50    1
    52    24    51    1
    53    24    52    1
