@<TRIPOS>MOLECULE
IMPHY017832
 42 43 0 0 0
SMALL
GASTEIGER

@<TRIPOS>ATOM
      1 O           2.8660    1.7500    0.0000 O.3     1  UNL1       -0.4647
      2 O           3.7320    0.2500    0.0000 O.2     1  UNL1       -0.2453
      3 C           6.3301   -1.2500    0.0000 C.3     1  UNL1       -0.0162
      4 C           5.4641   -1.7500    0.0000 C.3     1  UNL1       -0.0373
      5 C           6.3301   -0.2500    0.0000 C.2     1  UNL1       -0.0604
      6 C           5.4641    0.2500    0.0000 C.3     1  UNL1       -0.0006
      7 C           7.2764   -1.5547    0.0000 C.3     1  UNL1       -0.0426
      8 C           4.5981   -1.2500    0.0000 C.3     1  UNL1       -0.0491
      9 C           4.5981   -0.2500    0.0000 C.3     1  UNL1       -0.0427
     10 C           7.8600   -0.7500    0.0000 C.3     1  UNL1       -0.0312
     11 C           7.2764    0.0547    0.0000 C.2     1  UNL1       -0.0725
     12 C           5.4641   -2.7500    0.0000 C.3     1  UNL1       -0.0619
     13 C           5.4641    1.2500    0.0000 C.2     1  UNL1       -0.0672
     14 C           7.5870    1.0052    0.0000 C.3     1  UNL1       -0.0435
     15 C           4.5981    1.7500    0.0000 C.2     1  UNL1        0.0302
     16 C           4.5981    2.7500    0.0000 C.3     1  UNL1       -0.0332
     17 C           3.7320    1.2500    0.0000 C.2     1  UNL1        0.3343
     18 C           2.0000    1.2500    0.0000 C.3     1  UNL1        0.0820
     19 H           6.3957   -1.8665    0.0000 H       1  UNL1        0.0349
     20 H           6.0010   -2.0600    0.0000 H       1  UNL1        0.0304
     21 H           6.0010    0.5600    0.0000 H       1  UNL1        0.0388
     22 H           7.0253   -2.1216    0.0000 H       1  UNL1        0.0274
     23 H           7.8137   -1.8640    0.0000 H       1  UNL1        0.0274
     24 H           3.9875   -1.1423    0.0000 H       1  UNL1        0.0268
     25 H           4.3860   -1.8326    0.0000 H       1  UNL1        0.0268
     26 H           4.3860    0.3326    0.0000 H       1  UNL1        0.0274
     27 H           3.9875   -0.3577    0.0000 H       1  UNL1        0.0274
     28 H           8.3208   -1.1647    0.0000 H       1  UNL1        0.0310
     29 H           8.3208   -0.3353    0.0000 H       1  UNL1        0.0310
     30 H           4.8441   -2.7500    0.0000 H       1  UNL1        0.0233
     31 H           5.4641   -3.3700    0.0000 H       1  UNL1        0.0233
     32 H           6.0841   -2.7500    0.0000 H       1  UNL1        0.0233
     33 H           6.0010    1.5600    0.0000 H       1  UNL1        0.0583
     34 H           8.1763    0.8126    0.0000 H       1  UNL1        0.0274
     35 H           7.7796    1.5946    0.0000 H       1  UNL1        0.0274
     36 H           6.9977    1.1979    0.0000 H       1  UNL1        0.0274
     37 H           5.2181    2.7500    0.0000 H       1  UNL1        0.0280
     38 H           4.5981    3.3700    0.0000 H       1  UNL1        0.0280
     39 H           3.9781    2.7500    0.0000 H       1  UNL1        0.0280
     40 H           1.6900    1.7869    0.0000 H       1  UNL1        0.0661
     41 H           1.4631    0.9400    0.0000 H       1  UNL1        0.0661
     42 H           2.3100    0.7131    0.0000 H       1  UNL1        0.0661
@<TRIPOS>BOND
     1     1    17    1
     2     1    18    1
     3     2    17    2
     4     3     4    1
     5     3     5    1
     6     3     7    1
     7     3    19    1
     8     4     8    1
     9     4    12    1
    10     4    20    1
    11     5     6    1
    12     5    11    2
    13     6     9    1
    14     6    13    1
    15     6    21    1
    16     7    10    1
    17     7    22    1
    18     7    23    1
    19     8     9    1
    20     8    24    1
    21     8    25    1
    22     9    26    1
    23     9    27    1
    24    10    11    1
    25    10    28    1
    26    10    29    1
    27    11    14    1
    28    12    30    1
    29    12    31    1
    30    12    32    1
    31    13    15    2
    32    13    33    1
    33    14    34    1
    34    14    35    1
    35    14    36    1
    36    15    16    1
    37    15    17    1
    38    16    37    1
    39    16    38    1
    40    16    39    1
    41    18    40    1
    42    18    41    1
    43    18    42    1
