@<TRIPOS>MOLECULE
IMPHY007225
 25 27 0 0 0
SMALL
GASTEIGER

@<TRIPOS>ATOM
      1 O           2.0000   -0.0608    0.0000 O.2     1  UNL1       -0.2878
      2 N           5.5047    0.8518    0.0000 N.ar    1  UNL1       -0.3527
      3 N           8.0321   -0.2724    0.0000 N.ar    1  UNL1       -0.3630
      4 C           6.0047   -0.6871    0.0000 C.ar    1  UNL1        0.0104
      5 C           6.3137    0.2640    0.0000 C.ar    1  UNL1        0.0667
      6 C           5.0047   -0.6871    0.0000 C.ar    1  UNL1        0.0077
      7 C           4.6957    0.2640    0.0000 C.ar    1  UNL1        0.0512
      8 C           7.3291    0.4963    0.0000 C.ar    1  UNL1        0.0370
      9 C           6.6897   -1.4718    0.0000 C.ar    1  UNL1       -0.0360
     10 C           4.3197   -1.4718    0.0000 C.ar    1  UNL1       -0.0484
     11 C           3.6803    0.4963    0.0000 C.ar    1  UNL1        0.0090
     12 C           7.7102   -1.2631    0.0000 C.ar    1  UNL1        0.0025
     13 C           7.6271    1.4508    0.0000 C.3     1  UNL1       -0.0225
     14 C           3.2992   -1.2631    0.0000 C.ar    1  UNL1       -0.0142
     15 C           2.9773   -0.2724    0.0000 C.ar    1  UNL1        0.1810
     16 H           5.5047    1.4718    0.0000 H       1  UNL1        0.1660
     17 H           6.4913   -2.0592    0.0000 H       1  UNL1        0.0639
     18 H           4.5181   -2.0592    0.0000 H       1  UNL1        0.0625
     19 H           3.4955    1.0881    0.0000 H       1  UNL1        0.0677
     20 H           8.6380   -0.1412    0.0000 H       1  UNL1        0.1651
     21 H           8.1233   -1.7254    0.0000 H       1  UNL1        0.0807
     22 H           8.2190    1.2661    0.0000 H       1  UNL1        0.0292
     23 H           7.8119    2.0426    0.0000 H       1  UNL1        0.0292
     24 H           7.0353    1.6356    0.0000 H       1  UNL1        0.0292
     25 H           2.8861   -1.7254    0.0000 H       1  UNL1        0.0656
@<TRIPOS>BOND
     1     1    15    2
     2     2     5   ar
     3     2     7   ar
     4     2    16    1
     5     3     8   ar
     6     3    12   ar
     7     3    20    1
     8     4     5   ar
     9     4     6   ar
    10     4     9   ar
    11     5     8   ar
    12     6     7   ar
    13     6    10   ar
    14     7    11   ar
    15     8    13    1
    16     9    12   ar
    17     9    17    1
    18    10    14   ar
    19    10    18    1
    20    11    15   ar
    21    11    19    1
    22    12    21    1
    23    13    22    1
    24    13    23    1
    25    13    24    1
    26    14    15   ar
    27    14    25    1
