@<TRIPOS>MOLECULE
IMPHY010898
 57 58 0 0 0
SMALL
GASTEIGER

@<TRIPOS>ATOM
      1 O           4.2690   -3.9050    0.0000 O.3     1  UNL1       -0.5064
      2 O           2.5369   -0.9050    0.0000 O.3     1  UNL1       -0.5059
      3 O           8.5991    3.5950    0.0000 O.3     1  UNL1       -0.5065
      4 O           3.4030    0.5950    0.0000 O.2     1  UNL1       -0.2872
      5 C           5.1350   -2.4050    0.0000 C.ar    1  UNL1       -0.0013
      6 C           6.0010   -2.9050    0.0000 C.3     1  UNL1       -0.0058
      7 C           7.7331    2.0950    0.0000 C.ar    1  UNL1       -0.0017
      8 C           4.2690   -0.9050    0.0000 C.ar    1  UNL1        0.0635
      9 C           8.5991    1.5950    0.0000 C.3     1  UNL1       -0.0058
     10 C           5.1350   -1.4050    0.0000 C.ar    1  UNL1       -0.0405
     11 C           4.2690   -2.9050    0.0000 C.ar    1  UNL1        0.1238
     12 C           6.0010    2.0950    0.0000 C.ar    1  UNL1       -0.0244
     13 C           6.8671    1.5950    0.0000 C.ar    1  UNL1       -0.0477
     14 C           3.4030   -1.4050    0.0000 C.ar    1  UNL1        0.1311
     15 C           7.7331    3.0950    0.0000 C.ar    1  UNL1        0.1203
     16 C           6.8671   -2.4050    0.0000 C.2     1  UNL1       -0.0809
     17 C           3.4030   -2.4050    0.0000 C.ar    1  UNL1        0.0223
     18 C           4.2690    0.0950    0.0000 C.2     1  UNL1        0.1896
     19 C           9.4651    2.0950    0.0000 C.2     1  UNL1       -0.0809
     20 C           6.0010    3.0950    0.0000 C.ar    1  UNL1       -0.0511
     21 C           5.1350    1.5950    0.0000 C.2     1  UNL1       -0.0509
     22 C           6.8671    3.5950    0.0000 C.ar    1  UNL1       -0.0193
     23 C           7.7331   -2.9050    0.0000 C.2     1  UNL1       -0.0793
     24 C           5.1350    0.5950    0.0000 C.2     1  UNL1       -0.0137
     25 C          10.3312    1.5950    0.0000 C.2     1  UNL1       -0.0793
     26 C           8.5991   -2.4050    0.0000 C.3     1  UNL1       -0.0440
     27 C           7.7331   -3.9050    0.0000 C.3     1  UNL1       -0.0440
     28 C          11.1972    2.0950    0.0000 C.3     1  UNL1       -0.0440
     29 C          10.3312    0.5950    0.0000 C.3     1  UNL1       -0.0440
     30 H           5.6025   -3.3800    0.0000 H       1  UNL1        0.0357
     31 H           6.3996   -3.3800    0.0000 H       1  UNL1        0.0357
     32 H           8.2006    1.1200    0.0000 H       1  UNL1        0.0357
     33 H           8.9976    1.1200    0.0000 H       1  UNL1        0.0357
     34 H           5.6720   -1.0950    0.0000 H       1  UNL1        0.0630
     35 H           6.8671    0.9750    0.0000 H       1  UNL1        0.0627
     36 H           6.8671   -1.7850    0.0000 H       1  UNL1        0.0575
     37 H           2.8660   -2.7150    0.0000 H       1  UNL1        0.0691
     38 H           9.4651    2.7150    0.0000 H       1  UNL1        0.0575
     39 H           5.4641    3.4050    0.0000 H       1  UNL1        0.0625
     40 H           4.5981    1.9050    0.0000 H       1  UNL1        0.0625
     41 H           6.8671    4.2150    0.0000 H       1  UNL1        0.0654
     42 H           5.6720    0.2850    0.0000 H       1  UNL1        0.0656
     43 H           8.9091   -2.9419    0.0000 H       1  UNL1        0.0274
     44 H           9.1360   -2.0950    0.0000 H       1  UNL1        0.0274
     45 H           8.2891   -1.8681    0.0000 H       1  UNL1        0.0274
     46 H           7.1131   -3.9050    0.0000 H       1  UNL1        0.0274
     47 H           7.7331   -4.5250    0.0000 H       1  UNL1        0.0274
     48 H           8.3531   -3.9050    0.0000 H       1  UNL1        0.0274
     49 H          11.5072    1.5581    0.0000 H       1  UNL1        0.0274
     50 H          11.7341    2.4050    0.0000 H       1  UNL1        0.0274
     51 H           9.7112    0.5950    0.0000 H       1  UNL1        0.0274
     52 H          10.3312   -0.0250    0.0000 H       1  UNL1        0.0274
     53 H          10.9512    0.5950    0.0000 H       1  UNL1        0.0274
     54 H          10.8872    2.6319    0.0000 H       1  UNL1        0.0274
     55 H           3.7320   -4.2150    0.0000 H       1  UNL1        0.2921
     56 H           2.0000   -1.2150    0.0000 H       1  UNL1        0.2922
     57 H           8.5991    4.2150    0.0000 H       1  UNL1        0.2921
@<TRIPOS>BOND
     1     1    11    1
     2     1    55    1
     3     2    14    1
     4     2    56    1
     5     3    15    1
     6     3    57    1
     7     4    18    2
     8     5     6    1
     9     5    10   ar
    10     5    11   ar
    11     6    16    1
    12     6    30    1
    13     6    31    1
    14     7     9    1
    15     7    13   ar
    16     7    15   ar
    17     8    10   ar
    18     8    14   ar
    19     8    18    1
    20     9    19    1
    21     9    32    1
    22     9    33    1
    23    10    34    1
    24    11    17   ar
    25    12    13   ar
    26    12    20   ar
    27    12    21    1
    28    13    35    1
    29    14    17   ar
    30    15    22   ar
    31    16    23    2
    32    16    36    1
    33    17    37    1
    34    18    24    1
    35    19    25    2
    36    19    38    1
    37    20    22   ar
    38    20    39    1
    39    21    24    2
    40    21    40    1
    41    22    41    1
    42    23    26    1
    43    23    27    1
    44    24    42    1
    45    25    28    1
    46    25    29    1
    47    26    43    1
    48    26    44    1
    49    26    45    1
    50    27    46    1
    51    27    47    1
    52    27    48    1
    53    28    49    1
    54    28    50    1
    55    28    54    1
    56    29    51    1
    57    29    52    1
    58    29    53    1
