@<TRIPOS>MOLECULE
IMPHY007387
 117 123 0 0 0
SMALL
GASTEIGER

@<TRIPOS>ATOM
      1 O          10.6369    4.5879    0.0000 O.3     1  UNL1       -0.3849
      2 O           8.5480   -0.8497    0.0000 O.3     1  UNL1       -0.3908
      3 O           9.5315    5.6106    0.0000 O.3     1  UNL1       -0.4549
      4 O          10.3312   -3.9940    0.0000 O.3     1  UNL1       -0.3450
      5 O           8.5991   -3.9940    0.0000 O.3     1  UNL1       -0.3405
      6 O           9.1678    7.3040    0.0000 O.2     1  UNL1       -0.2453
      7 O          10.3312   -5.9940    0.0000 O.3     1  UNL1       -0.3841
      8 O           8.5991   -6.9940    0.0000 O.3     1  UNL1       -0.3864
      9 O           6.8671   -5.9940    0.0000 O.3     1  UNL1       -0.3865
     10 O           6.0010   -4.4940    0.0000 O.3     1  UNL1       -0.3460
     11 O           5.1350   -2.9940    0.0000 O.3     1  UNL1       -0.3405
     12 O           4.2690   -5.4940    0.0000 O.3     1  UNL1       -0.3841
     13 O           2.5369   -4.4940    0.0000 O.3     1  UNL1       -0.3864
     14 O           2.5369   -2.4940    0.0000 O.3     1  UNL1       -0.3865
     15 O           3.4030   -0.9940    0.0000 O.3     1  UNL1       -0.3924
     16 C          10.3604    2.2028    0.0000 C.3     1  UNL1       -0.0234
     17 C          11.2284    1.7062    0.0000 C.3     1  UNL1       -0.0319
     18 C          11.2322    0.7062    0.0000 C.3     1  UNL1       -0.0306
     19 C          10.3681    0.2028    0.0000 C.3     1  UNL1       -0.0262
     20 C          10.5659    3.1754    0.0000 C.3     1  UNL1       -0.0032
     21 C           9.4963    1.6995    0.0000 C.3     1  UNL1       -0.0467
     22 C          10.3561   -0.8387    0.0000 C.3     1  UNL1        0.0181
     23 C          11.9628    2.3761    0.0000 C.3     1  UNL1       -0.0491
     24 C           9.5002    0.6995    0.0000 C.3     1  UNL1       -0.0486
     25 C          11.5542    3.2823    0.0000 C.3     1  UNL1       -0.0467
     26 C          12.1442    0.2028    0.0000 C.3     1  UNL1       -0.0311
     27 C           9.8952    3.9172    0.0000 C.3     1  UNL1        0.1036
     28 C           9.4925    2.6995    0.0000 C.3     1  UNL1       -0.0590
     29 C          11.2562   -1.3630    0.0000 C.2     1  UNL1       -0.0624
     30 C           9.4062   -1.3630    0.0000 C.3     1  UNL1        0.0669
     31 C          12.1562   -0.8387    0.0000 C.2     1  UNL1       -0.0838
     32 C           9.4920   -0.3354    0.0000 C.3     1  UNL1       -0.0532
     33 C          11.2687   -2.4479    0.0000 C.3     1  UNL1       -0.0046
     34 C           9.2245    4.6589    0.0000 C.3     1  UNL1        0.1355
     35 C           9.3936   -2.4479    0.0000 C.3     1  UNL1        0.0007
     36 C          10.3312   -2.9940    0.0000 C.3     1  UNL1        0.0678
     37 C           9.1534    3.2465    0.0000 C.3     1  UNL1       -0.0323
     38 C           8.2468    4.4489    0.0000 C.3     1  UNL1        0.0088
     39 C           7.5760    5.1906    0.0000 C.2     1  UNL1       -0.0594
     40 C           9.4651   -4.4940    0.0000 C.3     1  UNL1        0.1882
     41 C           8.8608    6.3523    0.0000 C.2     1  UNL1        0.3352
     42 C           7.8830    6.1423    0.0000 C.2     1  UNL1        0.0326
     43 C           6.5984    4.9806    0.0000 C.3     1  UNL1       -0.0429
     44 C           9.4651   -5.4940    0.0000 C.3     1  UNL1        0.1341
     45 C           7.2123    6.8841    0.0000 C.3     1  UNL1       -0.0330
     46 C           8.5991   -5.9940    0.0000 C.3     1  UNL1        0.1141
     47 C           7.7331   -4.4940    0.0000 C.3     1  UNL1        0.1134
     48 C           7.7331   -5.4940    0.0000 C.3     1  UNL1        0.1119
     49 C           6.8671   -3.9940    0.0000 C.3     1  UNL1        0.0796
     50 C           5.1350   -3.9940    0.0000 C.3     1  UNL1        0.1880
     51 C           4.2690   -4.4940    0.0000 C.3     1  UNL1        0.1341
     52 C           3.4030   -3.9940    0.0000 C.3     1  UNL1        0.1141
     53 C           4.2690   -2.4940    0.0000 C.3     1  UNL1        0.1130
     54 C           3.4030   -2.9940    0.0000 C.3     1  UNL1        0.1119
     55 C           4.2690   -1.4940    0.0000 C.3     1  UNL1        0.0730
     56 H          12.0067    1.3645    0.0000 H       1  UNL1        0.0309
     57 H          11.9634    1.1397    0.0000 H       1  UNL1        0.0310
     58 H          11.1026   -0.2250    0.0000 H       1  UNL1        0.0313
     59 H          10.8685    3.9698    0.0000 H       1  UNL1        0.0335
     60 H           9.2820    2.2813    0.0000 H       1  UNL1        0.0271
     61 H           8.8862    1.5895    0.0000 H       1  UNL1        0.0271
     62 H          12.3302    1.8767    0.0000 H       1  UNL1        0.0268
     63 H          12.4981    2.6889    0.0000 H       1  UNL1        0.0268
     64 H           8.8892    0.8048    0.0000 H       1  UNL1        0.0268
     65 H           9.2904    0.1161    0.0000 H       1  UNL1        0.0268
     66 H          12.1431    3.4764    0.0000 H       1  UNL1        0.0269
     67 H          11.4231    3.8883    0.0000 H       1  UNL1        0.0269
     68 H          12.7562    0.1038    0.0000 H       1  UNL1        0.0310
     69 H          12.3465    0.7889    0.0000 H       1  UNL1        0.0310
     70 H           9.8004    3.2376    0.0000 H       1  UNL1        0.0235
     71 H           8.9544    3.0074    0.0000 H       1  UNL1        0.0235
     72 H           9.1846    2.1614    0.0000 H       1  UNL1        0.0235
     73 H           8.8651   -1.6657    0.0000 H       1  UNL1        0.0603
     74 H          12.6955   -1.1446    0.0000 H       1  UNL1        0.0572
     75 H           9.8041    0.2004    0.0000 H       1  UNL1        0.0239
     76 H           8.9563   -0.0233    0.0000 H       1  UNL1        0.0239
     77 H           9.1799   -0.8711    0.0000 H       1  UNL1        0.0239
     78 H          11.4845   -3.0292    0.0000 H       1  UNL1        0.0335
     79 H          11.8783   -2.3348    0.0000 H       1  UNL1        0.0335
     80 H          10.0555    4.8374    0.0000 H       1  UNL1        0.0766
     81 H           8.7840   -2.3348    0.0000 H       1  UNL1        0.0315
     82 H           9.1778   -3.0292    0.0000 H       1  UNL1        0.0315
     83 H          10.8687   -3.3030    0.0000 H       1  UNL1        0.0601
     84 H           8.7376    3.7063    0.0000 H       1  UNL1        0.0259
     85 H           8.6936    2.8306    0.0000 H       1  UNL1        0.0259
     86 H           9.5693    2.7866    0.0000 H       1  UNL1        0.0259
     87 H          11.2270    4.3975    0.0000 H       1  UNL1        0.2103
     88 H           7.7217    4.1192    0.0000 H       1  UNL1        0.0347
     89 H           8.4802    3.8746    0.0000 H       1  UNL1        0.0347
     90 H           8.0063   -1.1514    0.0000 H       1  UNL1        0.2098
     91 H          10.0021   -4.8040    0.0000 H       1  UNL1        0.0937
     92 H           6.4682    5.5868    0.0000 H       1  UNL1        0.0275
     93 H           5.9922    4.8505    0.0000 H       1  UNL1        0.0275
     94 H           6.7285    4.3745    0.0000 H       1  UNL1        0.0275
     95 H           9.4651   -6.1140    0.0000 H       1  UNL1        0.0671
     96 H           7.6722    7.2999    0.0000 H       1  UNL1        0.0280
     97 H           6.7965    7.3439    0.0000 H       1  UNL1        0.0280
     98 H           6.7525    6.4682    0.0000 H       1  UNL1        0.0280
     99 H           8.0622   -6.3040    0.0000 H       1  UNL1        0.0648
    100 H           7.7331   -3.8740    0.0000 H       1  UNL1        0.0647
    101 H           7.1962   -5.1840    0.0000 H       1  UNL1        0.0647
    102 H          10.3312   -6.6140    0.0000 H       1  UNL1        0.2101
    103 H           7.2656   -3.5191    0.0000 H       1  UNL1        0.0587
    104 H           6.4685   -3.5191    0.0000 H       1  UNL1        0.0587
    105 H           8.0622   -7.3040    0.0000 H       1  UNL1        0.2100
    106 H           6.8671   -6.6140    0.0000 H       1  UNL1        0.2100
    107 H           5.1350   -4.6140    0.0000 H       1  UNL1        0.0937
    108 H           3.7320   -4.8040    0.0000 H       1  UNL1        0.0671
    109 H           2.8660   -3.6840    0.0000 H       1  UNL1        0.0648
    110 H           4.8059   -2.1840    0.0000 H       1  UNL1        0.0647
    111 H           3.4030   -2.3740    0.0000 H       1  UNL1        0.0647
    112 H           3.7320   -5.8040    0.0000 H       1  UNL1        0.2101
    113 H           4.8796   -1.6017    0.0000 H       1  UNL1        0.0584
    114 H           4.4810   -0.9114    0.0000 H       1  UNL1        0.0584
    115 H           2.0000   -4.1840    0.0000 H       1  UNL1        0.2100
    116 H           2.0000   -2.8040    0.0000 H       1  UNL1        0.2100
    117 H           3.4030   -0.3740    0.0000 H       1  UNL1        0.2095
@<TRIPOS>BOND
     1    27     1    1
     2     1    87    1
     3    30     2    1
     4     2    90    1
     5     3    34    1
     6     3    41    1
     7    36     4    1
     8    40     4    1
     9     5    40    1
    10     5    47    1
    11     6    41    2
    12    44     7    1
    13     7   102    1
    14    46     8    1
    15     8   105    1
    16    48     9    1
    17     9   106    1
    18    10    49    1
    19    50    10    1
    20    11    50    1
    21    11    53    1
    22    51    12    1
    23    12   112    1
    24    52    13    1
    25    13   115    1
    26    54    14    1
    27    14   116    1
    28    15    55    1
    29    15   117    1
    30    16    17    1
    31    16    20    1
    32    16    21    1
    33    16    28    1
    34    17    18    1
    35    17    23    1
    36    17    56    1
    37    18    19    1
    38    18    26    1
    39    18    57    1
    40    19    22    1
    41    19    24    1
    42    19    58    1
    43    20    25    1
    44    20    27    1
    45    20    59    1
    46    21    24    1
    47    21    60    1
    48    21    61    1
    49    22    29    1
    50    22    30    1
    51    22    32    1
    52    23    25    1
    53    23    62    1
    54    23    63    1
    55    24    64    1
    56    24    65    1
    57    25    66    1
    58    25    67    1
    59    26    31    1
    60    26    68    1
    61    26    69    1
    62    27    34    1
    63    27    37    1
    64    28    70    1
    65    28    71    1
    66    28    72    1
    67    29    31    2
    68    29    33    1
    69    30    35    1
    70    30    73    1
    71    31    74    1
    72    32    75    1
    73    32    76    1
    74    32    77    1
    75    33    36    1
    76    33    78    1
    77    33    79    1
    78    34    38    1
    79    34    80    1
    80    35    36    1
    81    35    81    1
    82    35    82    1
    83    36    83    1
    84    37    84    1
    85    37    85    1
    86    37    86    1
    87    38    39    1
    88    38    88    1
    89    38    89    1
    90    39    42    2
    91    39    43    1
    92    40    44    1
    93    40    91    1
    94    41    42    1
    95    42    45    1
    96    43    92    1
    97    43    93    1
    98    43    94    1
    99    44    46    1
   100    44    95    1
   101    45    96    1
   102    45    97    1
   103    45    98    1
   104    46    48    1
   105    46    99    1
   106    47    48    1
   107    47    49    1
   108    47   100    1
   109    48   101    1
   110    49   103    1
   111    49   104    1
   112    50    51    1
   113    50   107    1
   114    51    52    1
   115    51   108    1
   116    52    54    1
   117    52   109    1
   118    53    54    1
   119    53    55    1
   120    53   110    1
   121    54   111    1
   122    55   113    1
   123    55   114    1
