@<TRIPOS>MOLECULE
IMPHY013868
 36 37 0 0 0
SMALL
GASTEIGER

@<TRIPOS>ATOM
      1 O           7.1962    0.2500    0.0000 O.3     1  UNL1       -0.4541
      2 O           5.4641   -0.7500    0.0000 O.3     1  UNL1       -0.4548
      3 O           4.5981    1.7500    0.0000 O.3     1  UNL1       -0.3834
      4 O           8.9282    0.2500    0.0000 O.2     1  UNL1       -0.2456
      5 O           7.1962   -0.7500    0.0000 O.2     1  UNL1       -0.2512
      6 C           5.4641    0.2500    0.0000 C.3     1  UNL1        0.1697
      7 C           6.3301    0.7500    0.0000 C.3     1  UNL1        0.1462
      8 C           4.5981    0.7500    0.0000 C.3     1  UNL1        0.1205
      9 C           6.3301    1.7500    0.0000 C.3     1  UNL1        0.0067
     10 C           3.7320    0.2500    0.0000 C.ar    1  UNL1       -0.0155
     11 C           7.1962    2.2500    0.0000 C.2     1  UNL1       -0.0737
     12 C           8.0622    0.7500    0.0000 C.2     1  UNL1        0.3320
     13 C           8.0622    1.7500    0.0000 C.2     1  UNL1        0.0187
     14 C           2.8660    0.7500    0.0000 C.ar    1  UNL1       -0.0560
     15 C           3.7320   -0.7500    0.0000 C.ar    1  UNL1       -0.0560
     16 C           6.3301   -1.2500    0.0000 C.2     1  UNL1        0.3044
     17 C           2.0000    0.2500    0.0000 C.ar    1  UNL1       -0.0614
     18 C           2.8660   -1.2500    0.0000 C.ar    1  UNL1       -0.0614
     19 C           2.0000   -0.7500    0.0000 C.ar    1  UNL1       -0.0617
     20 C           6.3301   -2.2500    0.0000 C.3     1  UNL1        0.0332
     21 H           6.0010   -0.0600    0.0000 H       1  UNL1        0.0802
     22 H           7.0662    1.1750    0.0000 H       1  UNL1        0.0776
     23 H           5.1350    1.0600    0.0000 H       1  UNL1        0.0682
     24 H           6.1181    2.3326    0.0000 H       1  UNL1        0.0344
     25 H           5.7196    1.6423    0.0000 H       1  UNL1        0.0344
     26 H           7.1962    2.8700    0.0000 H       1  UNL1        0.0575
     27 H           8.5991    2.0600    0.0000 H       1  UNL1        0.0686
     28 H           2.8660    1.3700    0.0000 H       1  UNL1        0.0621
     29 H           4.2690   -1.0600    0.0000 H       1  UNL1        0.0621
     30 H           4.0611    2.0600    0.0000 H       1  UNL1        0.2104
     31 H           1.4631    0.5600    0.0000 H       1  UNL1        0.0618
     32 H           2.8660   -1.8700    0.0000 H       1  UNL1        0.0618
     33 H           1.4631   -1.0600    0.0000 H       1  UNL1        0.0618
     34 H           5.7101   -2.2500    0.0000 H       1  UNL1        0.0342
     35 H           6.3301   -2.8700    0.0000 H       1  UNL1        0.0342
     36 H           6.9501   -2.2500    0.0000 H       1  UNL1        0.0342
@<TRIPOS>BOND
     1     1     7    1
     2     1    12    1
     3     6     2    1
     4     2    16    1
     5     8     3    1
     6     3    30    1
     7     4    12    2
     8     5    16    2
     9     6     7    1
    10     6     8    1
    11     6    21    1
    12     7     9    1
    13     7    22    1
    14     8    10    1
    15     8    23    1
    16     9    11    1
    17     9    24    1
    18     9    25    1
    19    10    14   ar
    20    10    15   ar
    21    11    13    2
    22    11    26    1
    23    12    13    1
    24    13    27    1
    25    14    17   ar
    26    14    28    1
    27    15    18   ar
    28    15    29    1
    29    16    20    1
    30    17    19   ar
    31    17    31    1
    32    18    19   ar
    33    18    32    1
    34    19    33    1
    35    20    34    1
    36    20    35    1
    37    20    36    1
