@<TRIPOS>MOLECULE
IMPHY006137
 13 12 0 0 0
SMALL
GASTEIGER

@<TRIPOS>ATOM
      1 O           4.2690   -1.0950    0.0000 O.3     1  UNL1       -0.3786
      2 O           2.5369   -0.0950    0.0000 O.3     1  UNL1       -0.3919
      3 O           6.0010   -0.0950    0.0000 O.3     1  UNL1       -0.4788
      4 O           5.1350    1.4050    0.0000 O.2     1  UNL1       -0.2480
      5 C           4.2690   -0.0950    0.0000 C.3     1  UNL1        0.1744
      6 C           3.4030    0.4050    0.0000 C.3     1  UNL1        0.0806
      7 C           5.1350    0.4050    0.0000 C.2     1  UNL1        0.3359
      8 H           5.0051   -0.5200    0.0000 H       1  UNL1        0.0734
      9 H           3.8015    0.8799    0.0000 H       1  UNL1        0.0588
     10 H           3.0044    0.8799    0.0000 H       1  UNL1        0.0588
     11 H           3.7320   -1.4050    0.0000 H       1  UNL1        0.2106
     12 H           2.0000    0.2150    0.0000 H       1  UNL1        0.2095
     13 H           6.5380    0.2150    0.0000 H       1  UNL1        0.2951
@<TRIPOS>BOND
     1     1     5    1
     2     1    11    1
     3     2     6    1
     4     2    12    1
     5     3     7    1
     6     3    13    1
     7     4     7    2
     8     5     6    1
     9     5     7    1
    10     5     8    1
    11     6     9    1
    12     6    10    1
