@<TRIPOS>MOLECULE
IMPHY001642
 28 28 0 0 0
SMALL
GASTEIGER

@<TRIPOS>ATOM
      1 O           6.0010    1.0000    0.0000 O.3     1  UNL1       -0.3875
      2 O           2.5369    1.0000    0.0000 O.3     1  UNL1       -0.3875
      3 O           4.2690    2.0000    0.0000 O.3     1  UNL1       -0.3866
      4 O           6.0010   -2.0000    0.0000 O.3     1  UNL1       -0.3934
      5 O           2.5369   -2.0000    0.0000 O.3     1  UNL1       -0.3934
      6 N           4.2690   -1.0000    0.0000 N.3     1  UNL1       -0.3018
      7 CA          5.1350   -0.5000    0.0000 C.3     1  UNL1        0.0599
      8 CA          3.4030   -0.5000    0.0000 C.3     1  UNL1        0.0599
      9 C           5.1350    0.5000    0.0000 C.3     1  UNL1        0.1009
     10 C           3.4030    0.5000    0.0000 C.3     1  UNL1        0.1009
     11 C           4.2690    1.0000    0.0000 C.3     1  UNL1        0.1099
     12 C           6.0010   -1.0000    0.0000 C.3     1  UNL1        0.0620
     13 C           2.5369   -1.0000    0.0000 C.3     1  UNL1        0.0620
     14 HA          5.1350   -1.1200    0.0000 H       1  UNL1        0.0509
     15 HA          3.4030   -1.1200    0.0000 H       1  UNL1        0.0509
     16 H           5.1350    1.1200    0.0000 H       1  UNL1        0.0636
     17 H           3.4030    1.1200    0.0000 H       1  UNL1        0.0636
     18 H           3.7320    1.3100    0.0000 H       1  UNL1        0.0646
     19 H           4.2690   -1.6200    0.0000 H       1  UNL1        0.1228
     20 H1          6.6116   -1.1077    0.0000 H       1  UNL1        0.0573
     21 H2          6.2131   -0.4174    0.0000 H       1  UNL1        0.0573
     22 H1          2.3249   -0.4174    0.0000 H       1  UNL1        0.0573
     23 H2          1.9264   -1.1077    0.0000 H       1  UNL1        0.0573
     24 H           6.5380    0.6900    0.0000 H       1  UNL1        0.2100
     25 H           2.0000    0.6900    0.0000 H       1  UNL1        0.2100
     26 H           4.8059    2.3100    0.0000 H       1  UNL1        0.2100
     27 H           6.5380   -2.3100    0.0000 H       1  UNL1        0.2095
     28 H           2.0000   -2.3100    0.0000 H       1  UNL1        0.2095
@<TRIPOS>BOND
     1     9     1    1
     2     1    24    1
     3    10     2    1
     4     2    25    1
     5     3    11    1
     6     3    26    1
     7     4    12    1
     8     4    27    1
     9     5    13    1
    10     5    28    1
    11     6     7    1
    12     6     8    1
    13     6    19    1
    14     7     9    1
    15     7    12    1
    16     7    14    1
    17     8    10    1
    18     8    13    1
    19     8    15    1
    20     9    11    1
    21     9    16    1
    22    10    11    1
    23    10    17    1
    24    11    18    1
    25    12    20    1
    26    12    21    1
    27    13    22    1
    28    13    23    1
