@<TRIPOS>MOLECULE
IMPHY007251
 21 22 0 0 0
SMALL
GASTEIGER

@<TRIPOS>ATOM
      1 O           4.6660    2.0000    0.0000 O.2     1  UNL1       -0.2872
      2 N           4.6660   -1.0000    0.0000 N.ar    1  UNL1       -0.3495
      3 C           3.8000   -0.5000    0.0000 C.ar    1  UNL1        0.0525
      4 C           3.8000    0.5000    0.0000 C.ar    1  UNL1        0.0451
      5 C           4.6660    1.0000    0.0000 C.ar    1  UNL1        0.1894
      6 C           2.9061   -1.0347    0.0000 C.ar    1  UNL1       -0.0375
      7 C           5.5321   -0.5000    0.0000 C.ar    1  UNL1        0.0084
      8 C           2.9061    1.0347    0.0000 C.ar    1  UNL1       -0.0490
      9 C           5.5321    0.5000    0.0000 C.ar    1  UNL1        0.0019
     10 C           4.6660   -2.0000    0.0000 C.3     1  UNL1        0.0119
     11 C           2.0000   -0.5208    0.0000 C.ar    1  UNL1       -0.0598
     12 C           2.0000    0.5208    0.0000 C.ar    1  UNL1       -0.0610
     13 H           2.9132   -1.6546    0.0000 H       1  UNL1        0.0638
     14 H           6.0690   -0.8100    0.0000 H       1  UNL1        0.0810
     15 H           2.9132    1.6546    0.0000 H       1  UNL1        0.0625
     16 H           6.0690    0.8100    0.0000 H       1  UNL1        0.0670
     17 H           4.0460   -2.0000    0.0000 H       1  UNL1        0.0456
     18 H           4.6660   -2.6200    0.0000 H       1  UNL1        0.0456
     19 H           5.2860   -2.0000    0.0000 H       1  UNL1        0.0456
     20 H           1.4643   -0.8329    0.0000 H       1  UNL1        0.0618
     21 H           1.4643    0.8329    0.0000 H       1  UNL1        0.0618
@<TRIPOS>BOND
     1     1     5    2
     2     2     3   ar
     3     2     7   ar
     4     2    10    1
     5     3     4   ar
     6     3     6   ar
     7     4     5   ar
     8     4     8   ar
     9     5     9   ar
    10     6    11   ar
    11     6    13    1
    12     7     9   ar
    13     7    14    1
    14     8    12   ar
    15     8    15    1
    16     9    16    1
    17    10    17    1
    18    10    18    1
    19    10    19    1
    20    11    12   ar
    21    11    20    1
    22    12    21    1
