@<TRIPOS>MOLECULE
IMPHY016126
 35 35 0 0 0
SMALL
GASTEIGER

@<TRIPOS>ATOM
      1 O           4.2320    1.7500    0.0000 O.3     1  UNL1       -0.4581
      2 O           2.0000   -1.1160    0.0000 O.2     1  UNL1       -0.2970
      3 O           5.7320    0.8840    0.0000 O.2     1  UNL1       -0.2511
      4 C           3.7320   -1.1160    0.0000 C.3     1  UNL1        0.0201
      5 C           3.7320    0.8840    0.0000 C.3     1  UNL1        0.1174
      6 C           4.5981   -0.6160    0.0000 C.3     1  UNL1       -0.0397
      7 C           4.5981    0.3840    0.0000 C.3     1  UNL1       -0.0120
      8 C           2.8660    0.3840    0.0000 C.3     1  UNL1        0.0458
      9 C           3.7320   -2.1160    0.0000 C.3     1  UNL1       -0.0372
     10 C           2.8660   -0.6160    0.0000 C.2     1  UNL1        0.1404
     11 C           3.2320    1.7500    0.0000 C.3     1  UNL1       -0.0244
     12 C           4.5981   -2.6160    0.0000 C.3     1  UNL1       -0.0620
     13 C           2.8660   -2.6160    0.0000 C.3     1  UNL1       -0.0620
     14 C           5.2320    1.7500    0.0000 C.2     1  UNL1        0.3045
     15 C           5.7320    2.6160    0.0000 C.3     1  UNL1        0.0333
     16 H           4.2690   -1.4260    0.0000 H       1  UNL1        0.0380
     17 H           4.8101   -1.1986    0.0000 H       1  UNL1        0.0273
     18 H           5.2087   -0.5084    0.0000 H       1  UNL1        0.0273
     19 H           5.2087    0.2763    0.0000 H       1  UNL1        0.0304
     20 H           4.8101    0.9666    0.0000 H       1  UNL1        0.0304
     21 H           2.6540    0.9666    0.0000 H       1  UNL1        0.0381
     22 H           2.2554    0.2763    0.0000 H       1  UNL1        0.0381
     23 H           3.7320   -2.7360    0.0000 H       1  UNL1        0.0302
     24 H           3.7690    2.0600    0.0000 H       1  UNL1        0.0268
     25 H           2.9220    2.2869    0.0000 H       1  UNL1        0.0268
     26 H           2.6951    1.4400    0.0000 H       1  UNL1        0.0268
     27 H           4.2881   -3.1530    0.0000 H       1  UNL1        0.0233
     28 H           5.1350   -2.9260    0.0000 H       1  UNL1        0.0233
     29 H           4.9081   -2.0791    0.0000 H       1  UNL1        0.0233
     30 H           2.5560   -2.0791    0.0000 H       1  UNL1        0.0233
     31 H           2.3291   -2.9260    0.0000 H       1  UNL1        0.0233
     32 H           3.1760   -3.1530    0.0000 H       1  UNL1        0.0233
     33 H           6.2690    2.3060    0.0000 H       1  UNL1        0.0342
     34 H           6.0420    3.1530    0.0000 H       1  UNL1        0.0342
     35 H           5.1951    2.9260    0.0000 H       1  UNL1        0.0342
@<TRIPOS>BOND
     1     1     5    1
     2     1    14    1
     3     2    10    2
     4     3    14    2
     5     4     6    1
     6     4     9    1
     7     4    10    1
     8     4    16    1
     9     5     7    1
    10     5     8    1
    11     5    11    1
    12     6     7    1
    13     6    17    1
    14     6    18    1
    15     7    19    1
    16     7    20    1
    17     8    10    1
    18     8    21    1
    19     8    22    1
    20     9    12    1
    21     9    13    1
    22     9    23    1
    23    11    24    1
    24    11    25    1
    25    11    26    1
    26    12    27    1
    27    12    28    1
    28    12    29    1
    29    13    30    1
    30    13    31    1
    31    13    32    1
    32    14    15    1
    33    15    33    1
    34    15    34    1
    35    15    35    1
