@<TRIPOS>MOLECULE
IMPHY015391
 27 26 0 0 0
SMALL
GASTEIGER

@<TRIPOS>ATOM
      1 O           2.8660    0.4400    0.0000 O.3     1  UNL1       -0.4679
      2 O           3.7320   -1.0600    0.0000 O.2     1  UNL1       -0.2509
      3 C           8.0622    0.4400    0.0000 C.3     1  UNL1       -0.0350
      4 C           5.4641   -0.0600    0.0000 C.3     1  UNL1       -0.0247
      5 C           8.9282   -0.0600    0.0000 C.3     1  UNL1       -0.0525
      6 C           4.5981    0.4400    0.0000 C.3     1  UNL1        0.0483
      7 C           7.1962   -0.0600    0.0000 C.2     1  UNL1       -0.0879
      8 C           6.3301    0.4400    0.0000 C.2     1  UNL1       -0.0874
      9 C           9.7942    0.4400    0.0000 C.3     1  UNL1       -0.0650
     10 C           3.7320   -0.0600    0.0000 C.2     1  UNL1        0.3071
     11 C           2.0000   -0.0600    0.0000 C.3     1  UNL1        0.0817
     12 H           8.4607    0.9149    0.0000 H       1  UNL1        0.0307
     13 H           7.6636    0.9149    0.0000 H       1  UNL1        0.0307
     14 H           5.0656   -0.5349    0.0000 H       1  UNL1        0.0312
     15 H           5.8626   -0.5349    0.0000 H       1  UNL1        0.0312
     16 H           8.5297   -0.5349    0.0000 H       1  UNL1        0.0266
     17 H           9.3267   -0.5349    0.0000 H       1  UNL1        0.0266
     18 H           4.9966    0.9149    0.0000 H       1  UNL1        0.0380
     19 H           4.1996    0.9149    0.0000 H       1  UNL1        0.0380
     20 H           7.1962   -0.6800    0.0000 H       1  UNL1        0.0569
     21 H           6.3301    1.0600    0.0000 H       1  UNL1        0.0569
     22 H          10.1042   -0.0969    0.0000 H       1  UNL1        0.0230
     23 H          10.3312    0.7500    0.0000 H       1  UNL1        0.0230
     24 H           9.4842    0.9769    0.0000 H       1  UNL1        0.0230
     25 H           1.6900    0.4769    0.0000 H       1  UNL1        0.0661
     26 H           1.4631   -0.3700    0.0000 H       1  UNL1        0.0661
     27 H           2.3100   -0.5969    0.0000 H       1  UNL1        0.0661
@<TRIPOS>BOND
     1     1    10    1
     2     1    11    1
     3     2    10    2
     4     3     5    1
     5     3     7    1
     6     3    12    1
     7     3    13    1
     8     4     6    1
     9     4     8    1
    10     4    14    1
    11     4    15    1
    12     5     9    1
    13     5    16    1
    14     5    17    1
    15     6    10    1
    16     6    18    1
    17     6    19    1
    18     7     8    2
    19     7    20    1
    20     8    21    1
    21     9    22    1
    22     9    23    1
    23     9    24    1
    24    11    25    1
    25    11    26    1
    26    11    27    1
