@<TRIPOS>MOLECULE
IMPHY005516
 38 39 0 0 0
SMALL
GASTEIGER

@<TRIPOS>ATOM
      1 O           6.6095    2.0255    0.0000 O.2     1  UNL1       -0.2924
      2 C           5.3639   -0.2360    0.0000 C.2     1  UNL1       -0.0590
      3 C           4.5740    1.3836    0.0000 C.3     1  UNL1       -0.0154
      4 C           5.3589    0.7640    0.0000 C.2     1  UNL1       -0.0026
      5 C           6.3116   -0.5360    0.0000 C.3     1  UNL1       -0.0151
      6 C           3.6092   -0.6457    0.0000 C.3     1  UNL1       -0.0167
      7 C           4.5852   -0.8633    0.0000 C.3     1  UNL1       -0.0243
      8 C           3.6002    1.1562    0.0000 C.3     1  UNL1       -0.0458
      9 C           3.1708    0.2531    0.0000 C.3     1  UNL1       -0.0457
     10 C           6.8912    0.2717    0.0000 C.3     1  UNL1        0.0164
     11 C           6.3036    1.0735    0.0000 C.2     1  UNL1        0.1600
     12 C           4.7916    2.3596    0.0000 C.3     1  UNL1       -0.0583
     13 C           6.6270   -1.4849    0.0000 C.3     1  UNL1       -0.0583
     14 C           2.9896   -1.4306    0.0000 C.2     1  UNL1       -0.0763
     15 C           2.0000   -1.2865    0.0000 C.3     1  UNL1       -0.0438
     16 C           3.3595   -2.3596    0.0000 C.2     1  UNL1       -0.0994
     17 H           4.1334    1.8198    0.0000 H       1  UNL1        0.0347
     18 H           6.9246   -0.6291    0.0000 H       1  UNL1        0.0347
     19 H           3.8168   -1.2299    0.0000 H       1  UNL1        0.0348
     20 H           4.3190   -1.4233    0.0000 H       1  UNL1        0.0316
     21 H           5.0718   -1.2475    0.0000 H       1  UNL1        0.0316
     22 H           3.5971    1.7762    0.0000 H       1  UNL1        0.0271
     23 H           2.9950    1.2912    0.0000 H       1  UNL1        0.0271
     24 H           2.6841    0.6373    0.0000 H       1  UNL1        0.0271
     25 H           2.6880   -0.1359    0.0000 H       1  UNL1        0.0271
     26 H           7.3541   -0.1408    0.0000 H       1  UNL1        0.0351
     27 H           7.3500    0.6887    0.0000 H       1  UNL1        0.0351
     28 H           5.3968    2.2247    0.0000 H       1  UNL1        0.0236
     29 H           4.9266    2.9648    0.0000 H       1  UNL1        0.0236
     30 H           4.1865    2.4946    0.0000 H       1  UNL1        0.0236
     31 H           6.0386   -1.6805    0.0000 H       1  UNL1        0.0236
     32 H           6.8226   -2.0733    0.0000 H       1  UNL1        0.0236
     33 H           7.2154   -1.2894    0.0000 H       1  UNL1        0.0236
     34 H           2.0894   -0.6730    0.0000 H       1  UNL1        0.0274
     35 H           1.3865   -1.1972    0.0000 H       1  UNL1        0.0274
     36 H           1.9106   -1.9000    0.0000 H       1  UNL1        0.0274
     37 H           2.9754   -2.8463    0.0000 H       1  UNL1        0.0534
     38 H           3.9731   -2.4490    0.0000 H       1  UNL1        0.0534
@<TRIPOS>BOND
     1     1    11    2
     2     2     4    2
     3     2     5    1
     4     2     7    1
     5     3     4    1
     6     3     8    1
     7     3    12    1
     8     3    17    1
     9     4    11    1
    10     5    10    1
    11     5    13    1
    12     5    18    1
    13     6     7    1
    14     6     9    1
    15     6    14    1
    16     6    19    1
    17     7    20    1
    18     7    21    1
    19     8     9    1
    20     8    22    1
    21     8    23    1
    22     9    24    1
    23     9    25    1
    24    10    11    1
    25    10    26    1
    26    10    27    1
    27    12    28    1
    28    12    29    1
    29    12    30    1
    30    13    31    1
    31    13    32    1
    32    13    33    1
    33    14    15    1
    34    14    16    2
    35    15    34    1
    36    15    35    1
    37    15    36    1
    38    16    37    1
    39    16    38    1
