@<TRIPOS>MOLECULE
IMPHY001869
 31 33 0 0 0
SMALL
GASTEIGER

@<TRIPOS>ATOM
      1 O           6.0682   -0.7500    0.0000 O.3     1  UNL1       -0.4830
      2 O           6.0682    2.2500    0.0000 O.2     1  UNL1       -0.2918
      3 O           2.5381   -0.7742    0.0000 O.3     1  UNL1       -0.5066
      4 O          10.3984   -2.2500    0.0000 O.3     1  UNL1       -0.5068
      5 C           6.9343   -0.2500    0.0000 C.3     1  UNL1        0.1322
      6 C           6.9343    0.7500    0.0000 C.3     1  UNL1        0.0519
      7 C           7.8003   -0.7500    0.0000 C.ar    1  UNL1       -0.0067
      8 C           6.0682    1.2500    0.0000 C.2     1  UNL1        0.1705
      9 C           5.2022    0.7500    0.0000 C.ar    1  UNL1        0.0594
     10 C           5.2022   -0.2500    0.0000 C.ar    1  UNL1        0.1353
     11 C           8.6663   -0.2500    0.0000 C.ar    1  UNL1       -0.0516
     12 C           7.8003   -1.7500    0.0000 C.ar    1  UNL1       -0.0516
     13 C           4.3083    1.2847    0.0000 C.ar    1  UNL1       -0.0443
     14 C           4.3083   -0.7847    0.0000 C.ar    1  UNL1        0.0223
     15 C           3.4022   -0.2708    0.0000 C.ar    1  UNL1        0.1204
     16 C           3.4022    0.7708    0.0000 C.ar    1  UNL1       -0.0193
     17 C           9.5323   -0.7500    0.0000 C.ar    1  UNL1       -0.0198
     18 C           8.6663   -2.2500    0.0000 C.ar    1  UNL1       -0.0198
     19 C           9.5323   -1.7500    0.0000 C.ar    1  UNL1        0.1169
     20 H           6.9343   -0.8700    0.0000 H       1  UNL1        0.0789
     21 H           7.5449    0.6423    0.0000 H       1  UNL1        0.0385
     22 H           7.1463    1.3326    0.0000 H       1  UNL1        0.0385
     23 H           8.6663    0.3700    0.0000 H       1  UNL1        0.0623
     24 H           7.2634   -2.0600    0.0000 H       1  UNL1        0.0623
     25 H           4.3154    1.9046    0.0000 H       1  UNL1        0.0627
     26 H           4.3154   -1.4046    0.0000 H       1  UNL1        0.0691
     27 H           2.8665    1.0829    0.0000 H       1  UNL1        0.0654
     28 H          10.0693   -0.4400    0.0000 H       1  UNL1        0.0654
     29 H           8.6663   -2.8700    0.0000 H       1  UNL1        0.0654
     30 H           2.0000   -0.4662    0.0000 H       1  UNL1        0.2921
     31 H          10.9353   -1.9400    0.0000 H       1  UNL1        0.2921
@<TRIPOS>BOND
     1     1     5    1
     2     1    10    1
     3     2     8    2
     4     3    15    1
     5     3    30    1
     6     4    19    1
     7     4    31    1
     8     5     6    1
     9     5     7    1
    10     5    20    1
    11     6     8    1
    12     6    21    1
    13     6    22    1
    14     7    11   ar
    15     7    12   ar
    16     8     9    1
    17     9    10   ar
    18     9    13   ar
    19    10    14   ar
    20    11    17   ar
    21    11    23    1
    22    12    18   ar
    23    12    24    1
    24    13    16   ar
    25    13    25    1
    26    14    15   ar
    27    14    26    1
    28    15    16   ar
    29    16    27    1
    30    17    19   ar
    31    17    28    1
    32    18    19   ar
    33    18    29    1
