@<TRIPOS>MOLECULE
IMPHY007464
 17 17 0 0 0
SMALL
GASTEIGER

@<TRIPOS>ATOM
      1 O           3.7320    2.0950    0.0000 O.3     1  UNL1       -0.4771
      2 O           2.0000    2.0950    0.0000 O.2     1  UNL1       -0.2451
      3 N           2.8660   -2.4050    0.0000 N.pl3   1  UNL1       -0.3580
      4 C           2.8660    0.5950    0.0000 C.ar    1  UNL1        0.0589
      5 C           2.8660   -1.4050    0.0000 C.ar    1  UNL1        0.0246
      6 C           2.0000    0.0950    0.0000 C.ar    1  UNL1       -0.0460
      7 C           3.7320    0.0950    0.0000 C.ar    1  UNL1       -0.0460
      8 C           2.0000   -0.9050    0.0000 C.ar    1  UNL1       -0.0403
      9 C           3.7320   -0.9050    0.0000 C.ar    1  UNL1       -0.0403
     10 C           2.8660    1.5950    0.0000 C.2     1  UNL1        0.3368
     11 H           1.4631    0.4050    0.0000 H       1  UNL1        0.0626
     12 H           4.2690    0.4050    0.0000 H       1  UNL1        0.0626
     13 H           1.4631   -1.2150    0.0000 H       1  UNL1        0.0636
     14 H           4.2690   -1.2150    0.0000 H       1  UNL1        0.0636
     15 H           2.3291   -2.7150    0.0000 H       1  UNL1        0.1423
     16 H           3.4030   -2.7150    0.0000 H       1  UNL1        0.1423
     17 H           3.7320    2.7150    0.0000 H       1  UNL1        0.2954
@<TRIPOS>BOND
     1     1    10    1
     2     1    17    1
     3     2    10    2
     4     3     5    1
     5     3    15    1
     6     3    16    1
     7     4     6   ar
     8     4     7   ar
     9     4    10    1
    10     5     8   ar
    11     5     9   ar
    12     6     8   ar
    13     6    11    1
    14     7     9   ar
    15     7    12    1
    16     8    13    1
    17     9    14    1
