@<TRIPOS>MOLECULE
IMPHY013958
 39 43 0 0 0
SMALL
GASTEIGER

@<TRIPOS>ATOM
      1 O           8.6480    2.2986    0.0000 O.2     1  UNL1       -0.2670
      2 N           6.9654    1.7486    0.0000 N.ar    1  UNL1       -0.3059
      3 N           4.5124    0.6311    0.0000 N.ar    1  UNL1       -0.3528
      4 N           9.7248   -0.6789    0.0000 N.ar    1  UNL1       -0.2619
      5 C           5.0091    2.1644    0.0000 C.ar    1  UNL1       -0.0113
      6 C           5.6782    2.9076    0.0000 C.3     1  UNL1       -0.0069
      7 C           5.3181    1.2134    0.0000 C.ar    1  UNL1        0.0674
      8 C           6.6564    2.6996    0.0000 C.3     1  UNL1        0.0308
      9 C           6.2962    1.0054    0.0000 C.ar    1  UNL1        0.0691
     10 C           4.0150    2.1618    0.0000 C.ar    1  UNL1        0.0035
     11 C           3.7086    1.2161    0.0000 C.ar    1  UNL1        0.0472
     12 C           6.6028    0.0099    0.0000 C.ar    1  UNL1       -0.0275
     13 C           7.9875    1.5478    0.0000 C.ar    1  UNL1        0.2610
     14 C           7.6200   -0.2145    0.0000 C.ar    1  UNL1       -0.0007
     15 C           8.3170    0.5596    0.0000 C.ar    1  UNL1        0.0653
     16 C           3.3334    2.9413    0.0000 C.ar    1  UNL1       -0.0523
     17 C           2.6994    0.9844    0.0000 C.ar    1  UNL1       -0.0378
     18 C           7.9393   -1.2514    0.0000 C.ar    1  UNL1        0.0005
     19 C           2.3191    2.7330    0.0000 C.ar    1  UNL1       -0.0611
     20 C           2.0000    1.7479    0.0000 C.ar    1  UNL1       -0.0598
     21 C           9.3816    0.3504    0.0000 C.ar    1  UNL1        0.0405
     22 C           8.9988   -1.4852    0.0000 C.ar    1  UNL1        0.0353
     23 C           7.2616   -1.9868    0.0000 C.2     1  UNL1       -0.0597
     24 C           7.5596   -2.9413    0.0000 C.2     1  UNL1       -0.0981
     25 H           5.9105    3.4824    0.0000 H       1  UNL1        0.0331
     26 H           5.1524    3.2361    0.0000 H       1  UNL1        0.0331
     27 H           7.2703    2.7859    0.0000 H       1  UNL1        0.0496
     28 H           6.6780    3.3193    0.0000 H       1  UNL1        0.0496
     29 H           4.5113    0.0111    0.0000 H       1  UNL1        0.1660
     30 H           6.1826   -0.4460    0.0000 H       1  UNL1        0.0645
     31 H           3.5313    3.5289    0.0000 H       1  UNL1        0.0624
     32 H           2.5152    0.3924    0.0000 H       1  UNL1        0.0638
     33 H           1.9056    3.1950    0.0000 H       1  UNL1        0.0618
     34 H           9.7911    0.8159    0.0000 H       1  UNL1        0.0837
     35 H           1.3942    1.6162    0.0000 H       1  UNL1        0.0618
     36 H           9.1881   -2.0755    0.0000 H       1  UNL1        0.0836
     37 H           6.6567   -1.8508    0.0000 H       1  UNL1        0.0618
     38 H           7.1395   -3.3972    0.0000 H       1  UNL1        0.0535
     39 H           8.1646   -3.0772    0.0000 H       1  UNL1        0.0535
@<TRIPOS>BOND
     1     1    13    2
     2     2     8    1
     3     2     9   ar
     4     2    13   ar
     5     3     7   ar
     6     3    11   ar
     7     3    29    1
     8     4    21   ar
     9     4    22   ar
    10     5     6    1
    11     5     7   ar
    12     5    10   ar
    13     6     8    1
    14     6    25    1
    15     6    26    1
    16     7     9    1
    17     8    27    1
    18     8    28    1
    19     9    12   ar
    20    10    11   ar
    21    10    16   ar
    22    11    17   ar
    23    12    14   ar
    24    12    30    1
    25    13    15   ar
    26    14    15   ar
    27    14    18   ar
    28    15    21   ar
    29    16    19   ar
    30    16    31    1
    31    17    20   ar
    32    17    32    1
    33    18    22   ar
    34    18    23    1
    35    19    20   ar
    36    19    33    1
    37    20    35    1
    38    21    34    1
    39    22    36    1
    40    23    24    2
    41    23    37    1
    42    24    38    1
    43    24    39    1
