@<TRIPOS>MOLECULE
IMPHY003989
 82 85 0 0 0
SMALL
GASTEIGER

@<TRIPOS>ATOM
      1 O          10.4473   -0.7906    0.0000 O.3     1  UNL1       -0.3914
      2 O          10.1248    0.6540    0.0000 O.3     1  UNL1       -0.3882
      3 O           5.3194    0.2094    0.0000 O.2     1  UNL1       -0.2968
      4 O           2.5405   -1.2513    0.0000 O.3     1  UNL1       -0.3842
      5 O           2.5244   -3.3429    0.0000 O.2     1  UNL1       -0.2937
      6 O          12.7312    3.4844    0.0000 O.3     1  UNL1       -0.3851
      7 C           7.9174   -1.2906    0.0000 C.3     1  UNL1       -0.0195
      8 C           7.9174   -0.2906    0.0000 C.3     1  UNL1       -0.0119
      9 C           7.0514   -1.7906    0.0000 C.3     1  UNL1       -0.0190
     10 C           8.8637    0.0142    0.0000 C.3     1  UNL1        0.0202
     11 C           6.1854   -1.2906    0.0000 C.3     1  UNL1        0.0364
     12 C           8.8637   -1.5953    0.0000 C.3     1  UNL1       -0.0203
     13 C           9.4473   -0.7906    0.0000 C.3     1  UNL1        0.0617
     14 C           7.0514    0.2094    0.0000 C.3     1  UNL1        0.0127
     15 C           5.2754   -1.7974    0.0000 C.3     1  UNL1       -0.0039
     16 C           6.1854   -0.2906    0.0000 C.2     1  UNL1        0.1406
     17 C           7.0675   -2.8321    0.0000 C.3     1  UNL1       -0.0302
     18 C           7.9174   -2.2906    0.0000 C.3     1  UNL1       -0.0587
     19 C           9.1743    0.9647    0.0000 C.3     1  UNL1        0.0724
     20 C           7.9174    0.7094    0.0000 C.3     1  UNL1       -0.0582
     21 C           5.2674   -2.8390    0.0000 C.2     1  UNL1       -0.0565
     22 C           5.3194   -0.7906    0.0000 C.3     1  UNL1       -0.0520
     23 C           4.3486   -1.2333    0.0000 C.3     1  UNL1       -0.0124
     24 C           6.1694   -3.3598    0.0000 C.2     1  UNL1       -0.0832
     25 C           4.3319   -3.3887    0.0000 C.3     1  UNL1        0.0471
     26 C           9.4850    1.9152    0.0000 C.3     1  UNL1       -0.0056
     27 C           8.2238    1.2754    0.0000 C.3     1  UNL1       -0.0354
     28 C           3.4007   -1.7613    0.0000 C.3     1  UNL1        0.1144
     29 C           3.3923   -2.8462    0.0000 C.2     1  UNL1        0.1710
     30 C           3.8353   -4.2567    0.0000 C.3     1  UNL1       -0.0492
     31 C           4.8353   -4.2528    0.0000 C.3     1  UNL1       -0.0492
     32 C          10.4635    2.1214    0.0000 C.2     1  UNL1       -0.0826
     33 C          10.7742    3.0720    0.0000 C.2     1  UNL1       -0.0572
     34 C          11.7527    3.2782    0.0000 C.3     1  UNL1        0.0786
     35 C          11.5464    4.2567    0.0000 C.3     1  UNL1       -0.0327
     36 C          11.9589    2.2997    0.0000 C.3     1  UNL1       -0.0327
     37 H           7.7908   -2.2099    0.0000 H       1  UNL1        0.0319
     38 H           8.2639    0.6165    0.0000 H       1  UNL1        0.0359
     39 H           8.6126   -2.1622    0.0000 H       1  UNL1        0.0296
     40 H           9.4010   -1.9045    0.0000 H       1  UNL1        0.0296
     41 H           9.7290   -1.3429    0.0000 H       1  UNL1        0.0597
     42 H           7.4500    0.6844    0.0000 H       1  UNL1        0.0347
     43 H           6.6529    0.6844    0.0000 H       1  UNL1        0.0347
     44 H           6.0066   -2.2309    0.0000 H       1  UNL1        0.0356
     45 H           7.2855   -3.4125    0.0000 H       1  UNL1        0.0311
     46 H           7.6766   -2.7166    0.0000 H       1  UNL1        0.0311
     47 H           7.2974   -2.2906    0.0000 H       1  UNL1        0.0235
     48 H           7.9174   -2.9106    0.0000 H       1  UNL1        0.0235
     49 H           8.5374   -2.2906    0.0000 H       1  UNL1        0.0235
     50 H           8.5374    0.7094    0.0000 H       1  UNL1        0.0235
     51 H           7.9174    1.3294    0.0000 H       1  UNL1        0.0235
     52 H           7.2974    0.7094    0.0000 H       1  UNL1        0.0235
     53 H           5.6294   -0.2536    0.0000 H       1  UNL1        0.0239
     54 H           4.7824   -0.4806    0.0000 H       1  UNL1        0.0239
     55 H           5.0094   -1.3275    0.0000 H       1  UNL1        0.0239
     56 H           4.7568   -0.7667    0.0000 H       1  UNL1        0.0300
     57 H           3.9586   -0.7513    0.0000 H       1  UNL1        0.0300
     58 H           6.1718   -3.9798    0.0000 H       1  UNL1        0.0572
     59 H           9.4644    2.5349    0.0000 H       1  UNL1        0.0335
     60 H           8.8712    2.0026    0.0000 H       1  UNL1        0.0335
     61 H           8.4164    1.8647    0.0000 H       1  UNL1        0.0257
     62 H           7.6345    1.4680    0.0000 H       1  UNL1        0.0257
     63 H           8.0312    0.6860    0.0000 H       1  UNL1        0.0257
     64 H          10.7573   -1.3275    0.0000 H       1  UNL1        0.2098
     65 H           3.4090   -1.1413    0.0000 H       1  UNL1        0.0673
     66 H          10.5863    1.0681    0.0000 H       1  UNL1        0.2102
     67 H           4.2995   -4.5649    0.0000 H       1  UNL1        0.0242
     68 H           3.2972   -3.9488    0.0000 H       1  UNL1        0.0242
     69 H           3.5274   -4.7948    0.0000 H       1  UNL1        0.0242
     70 H           5.1473   -4.7886    0.0000 H       1  UNL1        0.0242
     71 H           5.3710   -3.9408    0.0000 H       1  UNL1        0.0242
     72 H           4.3734   -4.5646    0.0000 H       1  UNL1        0.0242
     73 H          10.8776    1.6600    0.0000 H       1  UNL1        0.0571
     74 H           2.0000   -1.5551    0.0000 H       1  UNL1        0.2104
     75 H          10.3601    3.5334    0.0000 H       1  UNL1        0.0597
     76 H          11.3522    2.1718    0.0000 H       1  UNL1        0.0260
     77 H          12.0867    1.6930    0.0000 H       1  UNL1        0.0260
     78 H          12.5656    2.4275    0.0000 H       1  UNL1        0.0260
     79 H          12.1531    4.3845    0.0000 H       1  UNL1        0.0260
     80 H          11.4186    4.8633    0.0000 H       1  UNL1        0.0260
     81 H          10.9398    4.1288    0.0000 H       1  UNL1        0.0260
     82 H          12.9238    4.0737    0.0000 H       1  UNL1        0.2106
@<TRIPOS>BOND
     1    13     1    1
     2     1    64    1
     3    19     2    1
     4     2    66    1
     5     3    16    2
     6    28     4    1
     7     4    74    1
     8     5    29    2
     9     6    34    1
    10     6    82    1
    11     7     8    1
    12     7     9    1
    13     7    12    1
    14     7    18    1
    15     8    10    1
    16     8    14    1
    17     8    20    1
    18     9    11    1
    19     9    17    1
    20     9    37    1
    21    10    13    1
    22    10    19    1
    23    10    38    1
    24    11    15    1
    25    11    16    1
    26    11    22    1
    27    12    13    1
    28    12    39    1
    29    12    40    1
    30    13    41    1
    31    14    16    1
    32    14    42    1
    33    14    43    1
    34    15    21    1
    35    15    23    1
    36    15    44    1
    37    17    24    1
    38    17    45    1
    39    17    46    1
    40    18    47    1
    41    18    48    1
    42    18    49    1
    43    19    26    1
    44    19    27    1
    45    20    50    1
    46    20    51    1
    47    20    52    1
    48    21    24    2
    49    21    25    1
    50    22    53    1
    51    22    54    1
    52    22    55    1
    53    23    28    1
    54    23    56    1
    55    23    57    1
    56    24    58    1
    57    25    29    1
    58    25    30    1
    59    25    31    1
    60    26    32    1
    61    26    59    1
    62    26    60    1
    63    27    61    1
    64    27    62    1
    65    27    63    1
    66    28    29    1
    67    28    65    1
    68    30    68    1
    69    30    69    1
    70    30    72    1
    71    31    67    1
    72    31    70    1
    73    31    71    1
    74    32    33    2
    75    32    73    1
    76    33    34    1
    77    33    75    1
    78    34    35    1
    79    34    36    1
    80    35    79    1
    81    35    80    1
    82    35    81    1
    83    36    76    1
    84    36    77    1
    85    36    78    1
