@<TRIPOS>MOLECULE
IMPHY016056
 42 44 0 0 0
SMALL
GASTEIGER

@<TRIPOS>ATOM
      1 O           5.3748   -1.8627    0.0000 O.3     1  UNL1       -0.3947
      2 C           3.9985    0.2480    0.0000 C.3     1  UNL1       -0.0317
      3 C           3.1621    0.6508    0.0000 C.3     1  UNL1       -0.0294
      4 C           4.8348    0.6508    0.0000 C.3     1  UNL1       -0.0238
      5 C           3.1514   -0.2109    0.0000 C.3     1  UNL1       -0.0320
      6 C           4.8535   -0.2109    0.0000 C.3     1  UNL1       -0.0091
      7 C           2.9556    1.5557    0.0000 C.3     1  UNL1       -0.0315
      8 C           4.4917   -0.7215    0.0000 C.3     1  UNL1       -0.0492
      9 C           3.6195   -1.1257    0.0000 C.3     1  UNL1       -0.0493
     10 C           5.0414    1.5557    0.0000 C.3     1  UNL1       -0.0470
     11 C           3.5344    2.2814    0.0000 C.3     1  UNL1       -0.0476
     12 C           5.8297    0.5495    0.0000 C.3     1  UNL1       -0.0590
     13 C           4.4626    2.2814    0.0000 C.3     1  UNL1       -0.0521
     14 C           5.5910   -0.8863    0.0000 C.3     1  UNL1        0.0478
     15 C           2.1294    2.1191    0.0000 C.3     1  UNL1       -0.0595
     16 C           2.0000    1.2610    0.0000 C.3     1  UNL1       -0.0595
     17 H           3.8161   -0.5822    0.0000 H       1  UNL1        0.0309
     18 H           2.3169    0.5608    0.0000 H       1  UNL1        0.0312
     19 H           2.3239   -0.4049    0.0000 H       1  UNL1        0.0307
     20 H           5.3930    0.0945    0.0000 H       1  UNL1        0.0331
     21 H           4.7593   -1.2808    0.0000 H       1  UNL1        0.0268
     22 H           5.0477   -0.4471    0.0000 H       1  UNL1        0.0268
     23 H           3.0639   -1.4009    0.0000 H       1  UNL1        0.0268
     24 H           3.8874   -1.6848    0.0000 H       1  UNL1        0.0268
     25 H           5.6000    1.2867    0.0000 H       1  UNL1        0.0271
     26 H           5.4279    2.0404    0.0000 H       1  UNL1        0.0271
     27 H           3.6723    2.8858    0.0000 H       1  UNL1        0.0271
     28 H           2.9758    2.5504    0.0000 H       1  UNL1        0.0271
     29 H           5.7669   -0.0673    0.0000 H       1  UNL1        0.0235
     30 H           6.4465    0.4868    0.0000 H       1  UNL1        0.0235
     31 H           5.8924    1.1664    0.0000 H       1  UNL1        0.0235
     32 H           5.0212    2.5504    0.0000 H       1  UNL1        0.0266
     33 H           4.3246    2.8858    0.0000 H       1  UNL1        0.0266
     34 H           6.1638   -1.1234    0.0000 H       1  UNL1        0.0560
     35 H           5.9239   -0.3633    0.0000 H       1  UNL1        0.0560
     36 H           2.4787    2.6313    0.0000 H       1  UNL1        0.0235
     37 H           1.6172    2.4684    0.0000 H       1  UNL1        0.0235
     38 H           1.7801    1.6068    0.0000 H       1  UNL1        0.0235
     39 H           1.8173    1.8535    0.0000 H       1  UNL1        0.0235
     40 H           1.4075    1.0783    0.0000 H       1  UNL1        0.0235
     41 H           2.1827    0.6685    0.0000 H       1  UNL1        0.0235
     42 H           5.8320   -2.2814    0.0000 H       1  UNL1        0.2094
@<TRIPOS>BOND
     1     1    14    1
     2     1    42    1
     3     2     3    1
     4     2     4    1
     5     2     8    1
     6     2    17    1
     7     3     5    1
     8     3     7    1
     9     3    18    1
    10     4     6    1
    11     4    10    1
    12     4    12    1
    13     5     6    1
    14     5     9    1
    15     5    19    1
    16     6    14    1
    17     6    20    1
    18     7    11    1
    19     7    15    1
    20     7    16    1
    21     8     9    1
    22     8    21    1
    23     8    22    1
    24     9    23    1
    25     9    24    1
    26    10    13    1
    27    10    25    1
    28    10    26    1
    29    11    13    1
    30    11    27    1
    31    11    28    1
    32    12    29    1
    33    12    30    1
    34    12    31    1
    35    13    32    1
    36    13    33    1
    37    14    34    1
    38    14    35    1
    39    15    36    1
    40    15    37    1
    41    15    38    1
    42    16    39    1
    43    16    40    1
    44    16    41    1
