@<TRIPOS>MOLECULE
IMPHY001088
 46 49 0 0 0
SMALL
GASTEIGER

@<TRIPOS>ATOM
      1 O           6.2392    2.2950    0.0000 O.3     1  UNL1       -0.4847
      2 O           6.3683    0.1279    0.0000 O.3     1  UNL1       -0.5031
      3 O           2.9042    2.1279    0.0000 O.3     1  UNL1       -0.5056
      4 O           2.0000    0.6310    0.0000 O.2     1  UNL1       -0.2871
      5 C           4.6523   -0.9136    0.0000 C.3     1  UNL1        0.0229
      6 C           5.6042   -1.4342    0.0000 C.3     1  UNL1       -0.0357
      7 C           4.6362    0.1279    0.0000 C.ar    1  UNL1        0.0222
      8 C           3.7542   -1.4414    0.0000 C.2     1  UNL1       -0.0305
      9 C           5.6209   -2.5191    0.0000 C.3     1  UNL1       -0.0304
     10 C           5.5144   -0.4069    0.0000 C.3     1  UNL1       -0.0513
     11 C           3.7702    0.6279    0.0000 C.ar    1  UNL1        0.0710
     12 C           3.7459   -2.5263    0.0000 C.2     1  UNL1       -0.0473
     13 C           4.6855   -3.0688    0.0000 C.2     1  UNL1       -0.0694
     14 C           5.5022    0.6279    0.0000 C.ar    1  UNL1        0.1638
     15 C           2.8522   -0.9205    0.0000 C.2     1  UNL1       -0.0099
     16 C           4.6362    2.1279    0.0000 C.ar    1  UNL1        0.0434
     17 C           5.5022    1.6279    0.0000 C.ar    1  UNL1        0.1692
     18 C           3.7702    1.6279    0.0000 C.ar    1  UNL1        0.1349
     19 C           2.8602    0.1211    0.0000 C.2     1  UNL1        0.1903
     20 C           4.8454    3.0997    0.0000 C.3     1  UNL1        0.0163
     21 C           5.8341    3.2028    0.0000 C.3     1  UNL1        0.1018
     22 C           2.8779   -3.0230    0.0000 C.3     1  UNL1       -0.0395
     23 C           4.6894   -4.0688    0.0000 C.3     1  UNL1       -0.0432
     24 C           6.3341    4.0688    0.0000 C.3     1  UNL1       -0.0275
     25 H           6.2166   -1.5309    0.0000 H       1  UNL1        0.0280
     26 H           5.8042   -0.8474    0.0000 H       1  UNL1        0.0280
     27 H           5.8390   -3.0995    0.0000 H       1  UNL1        0.0310
     28 H           6.2301   -2.4036    0.0000 H       1  UNL1        0.0310
     29 H           5.8286   -0.9415    0.0000 H       1  UNL1        0.0241
     30 H           6.0489   -0.0928    0.0000 H       1  UNL1        0.0241
     31 H           5.2003    0.1276    0.0000 H       1  UNL1        0.0241
     32 H           2.3140   -1.2285    0.0000 H       1  UNL1        0.0659
     33 H           4.8463    3.7197    0.0000 H       1  UNL1        0.0351
     34 H           4.2290    3.1658    0.0000 H       1  UNL1        0.0351
     35 H           6.4533    3.1706    0.0000 H       1  UNL1        0.0733
     36 H           2.5700   -2.4848    0.0000 H       1  UNL1        0.0278
     37 H           2.3398   -3.3309    0.0000 H       1  UNL1        0.0278
     38 H           3.1858   -3.5611    0.0000 H       1  UNL1        0.0278
     39 H           4.0694   -4.0712    0.0000 H       1  UNL1        0.0275
     40 H           4.6918   -4.6888    0.0000 H       1  UNL1        0.0275
     41 H           5.3094   -4.0664    0.0000 H       1  UNL1        0.0275
     42 H           6.8711    3.7588    0.0000 H       1  UNL1        0.0265
     43 H           6.6441    4.6057    0.0000 H       1  UNL1        0.0265
     44 H           5.7972    4.3788    0.0000 H       1  UNL1        0.0265
     45 H           6.9052    0.4379    0.0000 H       1  UNL1        0.2923
     46 H           2.9042    2.7479    0.0000 H       1  UNL1        0.2922
@<TRIPOS>BOND
     1     1    17    1
     2     1    21    1
     3     2    14    1
     4     2    45    1
     5     3    18    1
     6     3    46    1
     7     4    19    2
     8     5     6    1
     9     5     7    1
    10     5     8    1
    11     5    10    1
    12     6     9    1
    13     6    25    1
    14     6    26    1
    15     7    11   ar
    16     7    14   ar
    17     8    12    1
    18     8    15    2
    19     9    13    1
    20     9    27    1
    21     9    28    1
    22    10    29    1
    23    10    30    1
    24    10    31    1
    25    11    18   ar
    26    11    19    1
    27    12    13    2
    28    12    22    1
    29    13    23    1
    30    14    17   ar
    31    15    19    1
    32    15    32    1
    33    16    17   ar
    34    16    18   ar
    35    16    20    1
    36    20    21    1
    37    20    33    1
    38    20    34    1
    39    21    24    1
    40    21    35    1
    41    22    36    1
    42    22    37    1
    43    22    38    1
    44    23    39    1
    45    23    40    1
    46    23    41    1
    47    24    42    1
    48    24    43    1
    49    24    44    1
