@<TRIPOS>MOLECULE
IMPHY001383
 113 115 0 0 0
SMALL
GASTEIGER

@<TRIPOS>ATOM
      1 O          14.9619    5.4143    0.0000 O.3     1  UNL1       -0.3683
      2 O           9.4645    2.6236    0.0000 O.3     1  UNL1       -0.3708
      3 O          12.8915    5.6892    0.0000 O.3     1  UNL1       -0.3892
      4 O          11.5349    2.3486    0.0000 O.3     1  UNL1       -0.3892
      5 O          16.7415    6.5076    0.0000 O.3     1  UNL1       -0.3892
      6 O           4.7208   -6.0085    0.0000 O.3     1  UNL1       -0.4587
      7 O           2.4608   -4.7485    0.0000 O.3     1  UNL1       -0.3873
      8 O           5.9809   -4.7485    0.0000 O.2     1  UNL1       -0.2504
      9 C          14.2928    4.6712    0.0000 C.3     1  UNL1        0.0850
     10 C          10.1336    3.3667    0.0000 C.3     1  UNL1        0.0849
     11 C          15.8754    5.0076    0.0000 C.3     1  UNL1        0.0850
     12 C          14.7928    3.8051    0.0000 C.3     1  UNL1       -0.0217
     13 C          13.2982    4.7757    0.0000 C.3     1  UNL1        0.0814
     14 C          15.7709    4.0130    0.0000 C.3     1  UNL1       -0.0217
     15 C           8.5510    3.0303    0.0000 C.3     1  UNL1        0.0592
     16 C          11.1281    3.2622    0.0000 C.3     1  UNL1        0.0814
     17 C           9.6336    4.2327    0.0000 C.3     1  UNL1       -0.0218
     18 C           8.6555    4.0248    0.0000 C.3     1  UNL1       -0.0242
     19 C          12.7105    3.9667    0.0000 C.3     1  UNL1       -0.0220
     20 C          11.7159    4.0712    0.0000 C.3     1  UNL1       -0.0220
     21 C          16.7415    5.5076    0.0000 C.3     1  UNL1        0.0813
     22 C           7.6849    2.5303    0.0000 C.3     1  UNL1       -0.0266
     23 C          17.6075    5.0076    0.0000 C.3     1  UNL1       -0.0244
     24 C           7.6849    1.5303    0.0000 C.3     1  UNL1       -0.0507
     25 C          18.4735    5.5076    0.0000 C.3     1  UNL1       -0.0506
     26 C           6.8189    1.0303    0.0000 C.3     1  UNL1       -0.0530
     27 C           6.8189    0.0303    0.0000 C.3     1  UNL1       -0.0531
     28 C          19.3395    5.0076    0.0000 C.3     1  UNL1       -0.0530
     29 C           4.2208   -4.4697    0.0000 C.3     1  UNL1        0.0857
     30 C           5.9529   -0.4697    0.0000 C.3     1  UNL1       -0.0531
     31 C           4.2208   -3.4697    0.0000 C.3     1  UNL1       -0.0376
     32 C           5.9529   -1.4697    0.0000 C.3     1  UNL1       -0.0531
     33 C           3.4118   -5.0575    0.0000 C.3     1  UNL1        0.1046
     34 C           5.0868   -2.9697    0.0000 C.3     1  UNL1       -0.0522
     35 C           5.0868   -1.9697    0.0000 C.3     1  UNL1       -0.0530
     36 C          20.2056    5.5076    0.0000 C.3     1  UNL1       -0.0531
     37 C           3.7208   -6.0085    0.0000 C.3     1  UNL1        0.1268
     38 C          21.0716    5.0076    0.0000 C.3     1  UNL1       -0.0531
     39 C           5.0298   -5.0575    0.0000 C.2     1  UNL1        0.3132
     40 C          21.9376    5.5076    0.0000 C.3     1  UNL1       -0.0531
     41 C           3.1330   -6.8176    0.0000 C.3     1  UNL1       -0.0252
     42 C          22.8036    5.0076    0.0000 C.3     1  UNL1       -0.0531
     43 C          23.6697    5.5076    0.0000 C.3     1  UNL1       -0.0533
     44 C          24.5357    5.0076    0.0000 C.3     1  UNL1       -0.0559
     45 C          25.4017    5.5076    0.0000 C.3     1  UNL1       -0.0653
     46 H          13.9882    5.4647    0.0000 H       1  UNL1        0.0622
     47 H          10.4382    2.5732    0.0000 H       1  UNL1        0.0622
     48 H          15.8310    5.8564    0.0000 H       1  UNL1        0.0622
     49 H          14.2264    3.5530    0.0000 H       1  UNL1        0.0292
     50 H          14.9844    3.2155    0.0000 H       1  UNL1        0.0292
     51 H          12.6816    4.8405    0.0000 H       1  UNL1        0.0619
     52 H          15.8357    3.3964    0.0000 H       1  UNL1        0.0292
     53 H          16.3909    4.0130    0.0000 H       1  UNL1        0.0292
     54 H           8.5834    2.4112    0.0000 H       1  UNL1        0.0596
     55 H          11.7448    3.1974    0.0000 H       1  UNL1        0.0619
     56 H          10.2000    4.4849    0.0000 H       1  UNL1        0.0292
     57 H           9.4420    4.8224    0.0000 H       1  UNL1        0.0292
     58 H           8.5907    4.6414    0.0000 H       1  UNL1        0.0291
     59 H           8.0355    4.0248    0.0000 H       1  UNL1        0.0291
     60 H          12.5396    3.3707    0.0000 H       1  UNL1        0.0292
     61 H          13.2677    3.6949    0.0000 H       1  UNL1        0.0292
     62 H          11.8868    4.6672    0.0000 H       1  UNL1        0.0292
     63 H          11.1587    4.3430    0.0000 H       1  UNL1        0.0292
     64 H          17.2784    5.8176    0.0000 H       1  UNL1        0.0619
     65 H           7.4729    3.1129    0.0000 H       1  UNL1        0.0290
     66 H           7.0743    2.4226    0.0000 H       1  UNL1        0.0290
     67 H          17.2090    4.5326    0.0000 H       1  UNL1        0.0291
     68 H          18.0060    4.5326    0.0000 H       1  UNL1        0.0291
     69 H           7.8970    0.9477    0.0000 H       1  UNL1        0.0266
     70 H           8.2955    1.6380    0.0000 H       1  UNL1        0.0266
     71 H          18.8720    5.9825    0.0000 H       1  UNL1        0.0266
     72 H          18.0750    5.9825    0.0000 H       1  UNL1        0.0266
     73 H           6.6068    1.6129    0.0000 H       1  UNL1        0.0265
     74 H           6.2083    0.9226    0.0000 H       1  UNL1        0.0265
     75 H          13.2559    6.1908    0.0000 H       1  UNL1        0.2099
     76 H          12.1515    2.2838    0.0000 H       1  UNL1        0.2099
     77 H           7.0310   -0.5523    0.0000 H       1  UNL1        0.0265
     78 H           7.4295    0.1380    0.0000 H       1  UNL1        0.0265
     79 H          18.9410    4.5326    0.0000 H       1  UNL1        0.0265
     80 H          19.7381    4.5326    0.0000 H       1  UNL1        0.0265
     81 H          17.2784    6.8176    0.0000 H       1  UNL1        0.2099
     82 H           3.6684   -4.1882    0.0000 H       1  UNL1        0.0440
     83 H           5.7408    0.1129    0.0000 H       1  UNL1        0.0265
     84 H           5.3423   -0.5774    0.0000 H       1  UNL1        0.0265
     85 H           4.0088   -2.8871    0.0000 H       1  UNL1        0.0274
     86 H           3.6102   -3.5774    0.0000 H       1  UNL1        0.0274
     87 H           2.9734   -5.4959    0.0000 H       1  UNL1        0.0638
     88 H           6.1649   -2.0523    0.0000 H       1  UNL1        0.0265
     89 H           6.5635   -1.3620    0.0000 H       1  UNL1        0.0265
     90 H           5.2989   -3.5523    0.0000 H       1  UNL1        0.0265
     91 H           5.6974   -2.8620    0.0000 H       1  UNL1        0.0265
     92 H           4.8748   -1.3871    0.0000 H       1  UNL1        0.0265
     93 H           4.4763   -2.0774    0.0000 H       1  UNL1        0.0265
     94 H          20.6041    5.9825    0.0000 H       1  UNL1        0.0265
     95 H          19.8070    5.9825    0.0000 H       1  UNL1        0.0265
     96 H           4.0023   -6.5610    0.0000 H       1  UNL1        0.0757
     97 H          20.6731    4.5326    0.0000 H       1  UNL1        0.0265
     98 H          21.4701    4.5326    0.0000 H       1  UNL1        0.0265
     99 H          22.3361    5.9825    0.0000 H       1  UNL1        0.0265
    100 H          21.5391    5.9825    0.0000 H       1  UNL1        0.0265
    101 H           2.6314   -6.4531    0.0000 H       1  UNL1        0.0266
    102 H           2.7686   -7.3192    0.0000 H       1  UNL1        0.0266
    103 H           3.6346   -7.1820    0.0000 H       1  UNL1        0.0266
    104 H           2.0000   -5.1633    0.0000 H       1  UNL1        0.2100
    105 H          22.4051    4.5326    0.0000 H       1  UNL1        0.0265
    106 H          23.2022    4.5326    0.0000 H       1  UNL1        0.0265
    107 H          24.0682    5.9825    0.0000 H       1  UNL1        0.0265
    108 H          23.2711    5.9825    0.0000 H       1  UNL1        0.0265
    109 H          24.1372    4.5326    0.0000 H       1  UNL1        0.0263
    110 H          24.9342    4.5326    0.0000 H       1  UNL1        0.0263
    111 H          25.7117    4.9706    0.0000 H       1  UNL1        0.0230
    112 H          25.9387    5.8176    0.0000 H       1  UNL1        0.0230
    113 H          25.0917    6.0445    0.0000 H       1  UNL1        0.0230
@<TRIPOS>BOND
     1     1     9    1
     2     1    11    1
     3     2    10    1
     4     2    15    1
     5    13     3    1
     6     3    75    1
     7    16     4    1
     8     4    76    1
     9    21     5    1
    10     5    81    1
    11     6    37    1
    12     6    39    1
    13    33     7    1
    14     7   104    1
    15     8    39    2
    16     9    12    1
    17     9    13    1
    18     9    46    1
    19    10    16    1
    20    10    17    1
    21    10    47    1
    22    11    14    1
    23    11    21    1
    24    11    48    1
    25    12    14    1
    26    12    49    1
    27    12    50    1
    28    13    19    1
    29    13    51    1
    30    14    52    1
    31    14    53    1
    32    15    18    1
    33    15    22    1
    34    15    54    1
    35    16    20    1
    36    16    55    1
    37    17    18    1
    38    17    56    1
    39    17    57    1
    40    18    58    1
    41    18    59    1
    42    19    20    1
    43    19    60    1
    44    19    61    1
    45    20    62    1
    46    20    63    1
    47    21    23    1
    48    21    64    1
    49    22    24    1
    50    22    65    1
    51    22    66    1
    52    23    25    1
    53    23    67    1
    54    23    68    1
    55    24    26    1
    56    24    69    1
    57    24    70    1
    58    25    28    1
    59    25    71    1
    60    25    72    1
    61    26    27    1
    62    26    73    1
    63    26    74    1
    64    27    30    1
    65    27    77    1
    66    27    78    1
    67    28    36    1
    68    28    79    1
    69    28    80    1
    70    29    31    1
    71    29    33    1
    72    29    39    1
    73    29    82    1
    74    30    32    1
    75    30    83    1
    76    30    84    1
    77    31    34    1
    78    31    85    1
    79    31    86    1
    80    32    35    1
    81    32    88    1
    82    32    89    1
    83    33    37    1
    84    33    87    1
    85    34    35    1
    86    34    90    1
    87    34    91    1
    88    35    92    1
    89    35    93    1
    90    36    38    1
    91    36    94    1
    92    36    95    1
    93    37    41    1
    94    37    96    1
    95    38    40    1
    96    38    97    1
    97    38    98    1
    98    40    42    1
    99    40    99    1
   100    40   100    1
   101    41   101    1
   102    41   102    1
   103    41   103    1
   104    42    43    1
   105    42   105    1
   106    42   106    1
   107    43    44    1
   108    43   107    1
   109    43   108    1
   110    44    45    1
   111    44   109    1
   112    44   110    1
   113    45   111    1
   114    45   112    1
   115    45   113    1
