@<TRIPOS>MOLECULE
IMPHY007394
 86 89 0 0 0
SMALL
GASTEIGER

@<TRIPOS>ATOM
      1 O           6.0010   -3.5000    0.0000 O.3     1  UNL1       -0.3401
      2 O           6.0010   -0.5000    0.0000 O.3     1  UNL1       -0.3394
      3 O           4.2690   -3.5000    0.0000 O.3     1  UNL1       -0.3431
      4 O           7.7331   -2.5000    0.0000 O.3     1  UNL1       -0.3864
      5 O           4.2690   -0.5000    0.0000 O.3     1  UNL1       -0.3484
      6 O           4.2690   -2.5000    0.0000 O.3     1  UNL1       -0.3841
      7 O           6.0010   -5.5000    0.0000 O.3     1  UNL1       -0.3841
      8 O           4.2690   -6.5000    0.0000 O.3     1  UNL1       -0.3864
      9 O           2.5369   -5.5000    0.0000 O.3     1  UNL1       -0.3866
     10 O           7.7331    0.5000    0.0000 O.3     1  UNL1       -0.4589
     11 O           9.4651    0.5000    0.0000 O.2     1  UNL1       -0.2456
     12 O           5.1350    4.0000    0.0000 O.3     1  UNL1       -0.5033
     13 O           3.4030    5.0000    0.0000 O.3     1  UNL1       -0.4915
     14 O          11.1972    5.5000    0.0000 O.3     1  UNL1       -0.4914
     15 O           9.4651    6.5000    0.0000 O.3     1  UNL1       -0.5033
     16 C           6.0010   -2.5000    0.0000 C.3     1  UNL1        0.1206
     17 C           6.8671   -2.0000    0.0000 C.3     1  UNL1        0.1133
     18 C           5.1350   -2.0000    0.0000 C.3     1  UNL1        0.1345
     19 C           6.8671   -1.0000    0.0000 C.3     1  UNL1        0.1240
     20 C           5.1350   -4.0000    0.0000 C.3     1  UNL1        0.1883
     21 C           5.1350   -5.0000    0.0000 C.3     1  UNL1        0.1341
     22 C           5.1350   -1.0000    0.0000 C.3     1  UNL1        0.1880
     23 C           4.2690   -5.5000    0.0000 C.3     1  UNL1        0.1140
     24 C           3.4030   -5.0000    0.0000 C.3     1  UNL1        0.1095
     25 C           3.4030   -4.0000    0.0000 C.3     1  UNL1        0.0873
     26 C           7.7331   -0.5000    0.0000 C.3     1  UNL1        0.1215
     27 C           2.5369   -3.5000    0.0000 C.3     1  UNL1       -0.0361
     28 C           4.2690    0.5000    0.0000 C.3     1  UNL1        0.0547
     29 C           3.4030    1.0000    0.0000 C.3     1  UNL1       -0.0039
     30 C           8.5991    1.0000    0.0000 C.2     1  UNL1        0.3320
     31 C           3.4030    2.0000    0.0000 C.ar    1  UNL1       -0.0415
     32 C           4.2690    2.5000    0.0000 C.ar    1  UNL1       -0.0133
     33 C           2.5369    2.5000    0.0000 C.ar    1  UNL1       -0.0548
     34 C           8.5991    2.0000    0.0000 C.2     1  UNL1        0.0231
     35 C           4.2690    3.5000    0.0000 C.ar    1  UNL1        0.1587
     36 C           2.5369    3.5000    0.0000 C.ar    1  UNL1       -0.0161
     37 C           3.4030    4.0000    0.0000 C.ar    1  UNL1        0.1613
     38 C           9.4651    2.5000    0.0000 C.2     1  UNL1       -0.0477
     39 C           9.4651    3.5000    0.0000 C.ar    1  UNL1       -0.0211
     40 C          10.3312    4.0000    0.0000 C.ar    1  UNL1       -0.0092
     41 C           8.5991    4.0000    0.0000 C.ar    1  UNL1       -0.0509
     42 C           2.5369    5.5000    0.0000 C.3     1  UNL1        0.0790
     43 C          10.3312    5.0000    0.0000 C.ar    1  UNL1        0.1618
     44 C           8.5991    5.0000    0.0000 C.ar    1  UNL1       -0.0160
     45 C           9.4651    5.5000    0.0000 C.ar    1  UNL1        0.1585
     46 C          12.0632    5.0000    0.0000 C.3     1  UNL1        0.0790
     47 H           6.5380   -2.8100    0.0000 H       1  UNL1        0.0651
     48 H           7.4040   -1.6900    0.0000 H       1  UNL1        0.0647
     49 H           5.1350   -2.6200    0.0000 H       1  UNL1        0.0671
     50 H           6.8671   -0.3800    0.0000 H       1  UNL1        0.0658
     51 H           5.1350   -3.3800    0.0000 H       1  UNL1        0.0938
     52 H           5.1350   -5.6200    0.0000 H       1  UNL1        0.0671
     53 H           5.1350   -0.3800    0.0000 H       1  UNL1        0.0937
     54 H           3.7320   -5.8100    0.0000 H       1  UNL1        0.0648
     55 H           2.8660   -4.6900    0.0000 H       1  UNL1        0.0646
     56 H           3.4030   -3.3800    0.0000 H       1  UNL1        0.0621
     57 H           7.9451   -1.0826    0.0000 H       1  UNL1        0.0725
     58 H           8.3437   -0.3923    0.0000 H       1  UNL1        0.0725
     59 H           2.8469   -2.9631    0.0000 H       1  UNL1        0.0255
     60 H           2.0000   -3.1900    0.0000 H       1  UNL1        0.0255
     61 H           2.2269   -4.0369    0.0000 H       1  UNL1        0.0255
     62 H           8.2700   -2.1900    0.0000 H       1  UNL1        0.2100
     63 H           3.7320   -2.1900    0.0000 H       1  UNL1        0.2101
     64 H           6.0010   -6.1200    0.0000 H       1  UNL1        0.2101
     65 H           3.7320   -6.8100    0.0000 H       1  UNL1        0.2100
     66 H           2.0000   -5.1900    0.0000 H       1  UNL1        0.2100
     67 H           4.8796    0.3923    0.0000 H       1  UNL1        0.0564
     68 H           4.4810    1.0826    0.0000 H       1  UNL1        0.0564
     69 H           2.7924    1.1077    0.0000 H       1  UNL1        0.0335
     70 H           3.1909    0.4174    0.0000 H       1  UNL1        0.0335
     71 H           4.8059    2.1900    0.0000 H       1  UNL1        0.0658
     72 H           2.0000    2.1900    0.0000 H       1  UNL1        0.0621
     73 H           8.0622    2.3100    0.0000 H       1  UNL1        0.0689
     74 H           2.0000    3.8100    0.0000 H       1  UNL1        0.0655
     75 H          10.0021    2.1900    0.0000 H       1  UNL1        0.0626
     76 H           5.1350    4.6200    0.0000 H       1  UNL1        0.2923
     77 H          10.8681    3.6900    0.0000 H       1  UNL1        0.0661
     78 H           8.0622    3.6900    0.0000 H       1  UNL1        0.0625
     79 H           2.8469    6.0369    0.0000 H       1  UNL1        0.0660
     80 H           2.0000    5.8100    0.0000 H       1  UNL1        0.0660
     81 H           2.2269    4.9631    0.0000 H       1  UNL1        0.0660
     82 H           8.0622    5.3100    0.0000 H       1  UNL1        0.0655
     83 H           8.9282    6.8100    0.0000 H       1  UNL1        0.2923
     84 H          11.7532    4.4631    0.0000 H       1  UNL1        0.0660
     85 H          12.6002    4.6900    0.0000 H       1  UNL1        0.0660
     86 H          12.3732    5.5369    0.0000 H       1  UNL1        0.0660
@<TRIPOS>BOND
     1    16     1    1
     2    20     1    1
     3     2    19    1
     4     2    22    1
     5     3    20    1
     6     3    25    1
     7    17     4    1
     8     4    62    1
     9    22     5    1
    10     5    28    1
    11    18     6    1
    12     6    63    1
    13    21     7    1
    14     7    64    1
    15    23     8    1
    16     8    65    1
    17    24     9    1
    18     9    66    1
    19    10    26    1
    20    10    30    1
    21    11    30    2
    22    12    35    1
    23    12    76    1
    24    13    37    1
    25    13    42    1
    26    14    43    1
    27    14    46    1
    28    15    45    1
    29    15    83    1
    30    16    17    1
    31    16    18    1
    32    16    47    1
    33    17    19    1
    34    17    48    1
    35    18    22    1
    36    18    49    1
    37    19    26    1
    38    19    50    1
    39    20    21    1
    40    20    51    1
    41    21    23    1
    42    21    52    1
    43    22    53    1
    44    23    24    1
    45    23    54    1
    46    24    25    1
    47    24    55    1
    48    25    27    1
    49    25    56    1
    50    26    57    1
    51    26    58    1
    52    27    59    1
    53    27    60    1
    54    27    61    1
    55    28    29    1
    56    28    67    1
    57    28    68    1
    58    29    31    1
    59    29    69    1
    60    29    70    1
    61    30    34    1
    62    31    32   ar
    63    31    33   ar
    64    32    35   ar
    65    32    71    1
    66    33    36   ar
    67    33    72    1
    68    34    38    2
    69    34    73    1
    70    35    37   ar
    71    36    37   ar
    72    36    74    1
    73    38    39    1
    74    38    75    1
    75    39    40   ar
    76    39    41   ar
    77    40    43   ar
    78    40    77    1
    79    41    44   ar
    80    41    78    1
    81    42    79    1
    82    42    80    1
    83    42    81    1
    84    43    45   ar
    85    44    45   ar
    86    44    82    1
    87    46    84    1
    88    46    85    1
    89    46    86    1
