@<TRIPOS>MOLECULE
IMPHY014993
 73 77 0 0 0
SMALL
GASTEIGER

@<TRIPOS>ATOM
      1 O           6.8671   -1.7787    0.0000 O.3     1  UNL1       -0.3313
      2 O           4.2690   -4.2787    0.0000 O.3     1  UNL1       -0.3405
      3 O           6.0010   -4.2787    0.0000 O.3     1  UNL1       -0.3460
      4 O           7.7331   -4.2787    0.0000 O.3     1  UNL1       -0.3865
      5 O           9.4651   -3.2787    0.0000 O.3     1  UNL1       -0.3864
      6 O           7.7331   -0.2787    0.0000 O.3     1  UNL1       -0.4606
      7 O           6.0010   -6.2787    0.0000 O.3     1  UNL1       -0.3841
      8 O           4.2690   -7.2787    0.0000 O.3     1  UNL1       -0.3864
      9 O           9.4651   -1.2787    0.0000 O.3     1  UNL1       -0.3829
     10 O           2.5369   -6.2787    0.0000 O.3     1  UNL1       -0.3865
     11 O           2.5369   -3.2787    0.0000 O.3     1  UNL1       -0.3924
     12 O           5.9589    2.7733    0.0000 O.2     1  UNL1       -0.4544
     13 O           4.1934   -0.2514    0.0000 O.3     1  UNL1       -0.5058
     14 O           3.3550    1.2833    0.0000 O.2     1  UNL1       -0.2869
     15 O           6.8384    6.2699    0.0000 O.3     1  UNL1       -0.5033
     16 O           5.1102    7.2766    0.0000 O.3     1  UNL1       -0.5033
     17 C           6.8671   -2.7787    0.0000 C.3     1  UNL1        0.1144
     18 C           7.7331   -3.2787    0.0000 C.3     1  UNL1        0.1120
     19 C           8.5991   -2.7787    0.0000 C.3     1  UNL1        0.1152
     20 C           5.1350   -5.7787    0.0000 C.3     1  UNL1        0.1341
     21 C           4.2690   -6.2787    0.0000 C.3     1  UNL1        0.1141
     22 C           5.1350   -4.7787    0.0000 C.3     1  UNL1        0.1880
     23 C           8.5991   -1.7787    0.0000 C.3     1  UNL1        0.1454
     24 C           3.4030   -5.7787    0.0000 C.3     1  UNL1        0.1119
     25 C           3.4030   -4.7787    0.0000 C.3     1  UNL1        0.1130
     26 C           6.0010   -3.2787    0.0000 C.3     1  UNL1        0.0796
     27 C           7.7331   -1.2787    0.0000 C.3     1  UNL1        0.2308
     28 C           2.5369   -4.2787    0.0000 C.3     1  UNL1        0.0730
     29 C           6.8671    0.2213    0.0000 C.ar    1  UNL1        0.1310
     30 C           6.8630    1.2630    0.0000 C.ar    1  UNL1        0.0235
     31 C           5.9630   -0.2960    0.0000 C.ar    1  UNL1        0.0226
     32 C           5.9550    1.7733    0.0000 C.ar    1  UNL1        0.1462
     33 C           5.0670    0.2352    0.0000 C.ar    1  UNL1        0.1347
     34 C           5.0871    1.2766    0.0000 C.ar    1  UNL1        0.1055
     35 C           4.2230    1.7800    0.0000 C.ar    1  UNL1        0.1966
     36 C           5.0948    3.2766    0.0000 C.ar    1  UNL1        0.1393
     37 C           4.2268    2.7800    0.0000 C.ar    1  UNL1        0.0288
     38 C           5.0986    4.2766    0.0000 C.ar    1  UNL1        0.0211
     39 C           5.9666    4.7733    0.0000 C.ar    1  UNL1       -0.0059
     40 C           4.2345    4.7800    0.0000 C.ar    1  UNL1       -0.0474
     41 C           5.9704    5.7733    0.0000 C.ar    1  UNL1        0.1589
     42 C           4.2384    5.7800    0.0000 C.ar    1  UNL1       -0.0159
     43 C           5.1063    6.2766    0.0000 C.ar    1  UNL1        0.1583
     44 H           6.3301   -2.4687    0.0000 H       1  UNL1        0.0647
     45 H           8.2700   -3.5887    0.0000 H       1  UNL1        0.0647
     46 H           9.1360   -2.4687    0.0000 H       1  UNL1        0.0648
     47 H           5.1350   -6.3987    0.0000 H       1  UNL1        0.0671
     48 H           3.7320   -6.5887    0.0000 H       1  UNL1        0.0648
     49 H           5.1350   -4.1587    0.0000 H       1  UNL1        0.0937
     50 H           8.5991   -1.1587    0.0000 H       1  UNL1        0.0683
     51 H           3.4030   -6.3987    0.0000 H       1  UNL1        0.0647
     52 H           3.4030   -4.1587    0.0000 H       1  UNL1        0.0647
     53 H           5.7890   -2.6961    0.0000 H       1  UNL1        0.0587
     54 H           5.3905   -3.3863    0.0000 H       1  UNL1        0.0587
     55 H           7.1962   -0.9687    0.0000 H       1  UNL1        0.1084
     56 H           1.9264   -4.1710    0.0000 H       1  UNL1        0.0584
     57 H           2.3249   -4.8613    0.0000 H       1  UNL1        0.0584
     58 H           8.2700   -4.5887    0.0000 H       1  UNL1        0.2100
     59 H          10.0021   -2.9687    0.0000 H       1  UNL1        0.2100
     60 H           6.5380   -5.9687    0.0000 H       1  UNL1        0.2101
     61 H           3.7320   -7.5887    0.0000 H       1  UNL1        0.2100
     62 H           9.4651   -0.6587    0.0000 H       1  UNL1        0.2102
     63 H           2.0000   -5.9687    0.0000 H       1  UNL1        0.2100
     64 H           2.0000   -2.9687    0.0000 H       1  UNL1        0.2095
     65 H           7.3976    1.5771    0.0000 H       1  UNL1        0.0691
     66 H           5.9582   -0.9160    0.0000 H       1  UNL1        0.0691
     67 H           3.6911    3.0920    0.0000 H       1  UNL1        0.0693
     68 H           4.1838   -0.8713    0.0000 H       1  UNL1        0.2922
     69 H           6.5023    4.4612    0.0000 H       1  UNL1        0.0662
     70 H           3.6964    4.4720    0.0000 H       1  UNL1        0.0626
     71 H           3.7026    6.0920    0.0000 H       1  UNL1        0.0655
     72 H           6.8408    6.8899    0.0000 H       1  UNL1        0.2923
     73 H           4.5744    7.5887    0.0000 H       1  UNL1        0.2923
@<TRIPOS>BOND
     1     1    17    1
     2     1    27    1
     3     2    22    1
     4     2    25    1
     5    22     3    1
     6     3    26    1
     7    18     4    1
     8     4    58    1
     9    19     5    1
    10     5    59    1
    11    27     6    1
    12     6    29    1
    13    20     7    1
    14     7    60    1
    15    21     8    1
    16     8    61    1
    17    23     9    1
    18     9    62    1
    19    24    10    1
    20    10    63    1
    21    11    28    1
    22    11    64    1
    23    12    32   ar
    24    12    36   ar
    25    13    33    1
    26    13    68    1
    27    14    35    2
    28    15    41    1
    29    15    72    1
    30    16    43    1
    31    16    73    1
    32    17    18    1
    33    17    26    1
    34    17    44    1
    35    18    19    1
    36    18    45    1
    37    19    23    1
    38    19    46    1
    39    20    21    1
    40    20    22    1
    41    20    47    1
    42    21    24    1
    43    21    48    1
    44    22    49    1
    45    23    27    1
    46    23    50    1
    47    24    25    1
    48    24    51    1
    49    25    28    1
    50    25    52    1
    51    26    53    1
    52    26    54    1
    53    27    55    1
    54    28    56    1
    55    28    57    1
    56    29    30   ar
    57    29    31   ar
    58    30    32   ar
    59    30    65    1
    60    31    33   ar
    61    31    66    1
    62    32    34   ar
    63    33    34   ar
    64    34    35   ar
    65    35    37   ar
    66    36    37   ar
    67    36    38    1
    68    37    67    1
    69    38    39   ar
    70    38    40   ar
    71    39    41   ar
    72    39    69    1
    73    40    42   ar
    74    40    70    1
    75    41    43   ar
    76    42    43   ar
    77    42    71    1
