@<TRIPOS>MOLECULE
IMPHY015683
 21 20 0 0 0
SMALL
GASTEIGER

@<TRIPOS>ATOM
      1 O           2.0000   -1.1900    0.0000 O.2     1  UNL1       -0.2963
      2 C           7.1962    0.8100    0.0000 C.3     1  UNL1       -0.0525
      3 C           6.3301    0.3100    0.0000 C.3     1  UNL1       -0.0347
      4 C           7.1962    1.8100    0.0000 C.3     1  UNL1       -0.0650
      5 C           6.3301   -0.6900    0.0000 C.2     1  UNL1       -0.0840
      6 C           5.4641   -1.1900    0.0000 C.2     1  UNL1       -0.0656
      7 C           4.5981   -0.6900    0.0000 C.2     1  UNL1       -0.0590
      8 C           3.7320   -1.1900    0.0000 C.2     1  UNL1       -0.0225
      9 C           2.8660   -0.6900    0.0000 C.2     1  UNL1        0.1431
     10 H           7.4082    0.2274    0.0000 H       1  UNL1        0.0266
     11 H           7.8067    0.9177    0.0000 H       1  UNL1        0.0266
     12 H           6.1181    0.8926    0.0000 H       1  UNL1        0.0307
     13 H           5.7196    0.2023    0.0000 H       1  UNL1        0.0307
     14 H           7.8162    1.8100    0.0000 H       1  UNL1        0.0230
     15 H           7.1962    2.4300    0.0000 H       1  UNL1        0.0230
     16 H           6.5762    1.8100    0.0000 H       1  UNL1        0.0230
     17 H           6.8671   -1.0000    0.0000 H       1  UNL1        0.0572
     18 H           5.4641   -1.8100    0.0000 H       1  UNL1        0.0614
     19 H           4.5981   -0.0700    0.0000 H       1  UNL1        0.0618
     20 H           3.7320   -1.8100    0.0000 H       1  UNL1        0.0649
     21 H           2.8660   -0.0700    0.0000 H       1  UNL1        0.1075
@<TRIPOS>BOND
     1     1     9    2
     2     2     3    1
     3     2     4    1
     4     2    10    1
     5     2    11    1
     6     3     5    1
     7     3    12    1
     8     3    13    1
     9     4    14    1
    10     4    15    1
    11     4    16    1
    12     5     6    2
    13     5    17    1
    14     6     7    1
    15     6    18    1
    16     7     8    2
    17     7    19    1
    18     8     9    1
    19     8    20    1
    20     9    21    1
