@<TRIPOS>MOLECULE
IMPHY000748
 58 60 0 0 0
SMALL
GASTEIGER

@<TRIPOS>ATOM
      1 O           6.0290    0.5774    0.0000 O.3     1  UNL1       -0.4826
      2 O           6.0174    3.6467    0.0000 O.2     1  UNL1       -0.2917
      3 O           4.2690    3.6121    0.0000 O.3     1  UNL1       -0.5058
      4 O           2.5369    0.6121    0.0000 O.3     1  UNL1       -0.5062
      5 O          10.3914   -0.9221    0.0000 O.3     1  UNL1       -0.5065
      6 C           6.9350    1.0912    0.0000 C.3     1  UNL1        0.1322
      7 C           6.9350    2.1329    0.0000 C.3     1  UNL1        0.0520
      8 C           5.1350    1.1121    0.0000 C.ar    1  UNL1        0.1423
      9 C           7.7991    0.5879    0.0000 C.ar    1  UNL1       -0.0064
     10 C           5.1350    2.1121    0.0000 C.ar    1  UNL1        0.1009
     11 C           6.0290    2.6467    0.0000 C.2     1  UNL1        0.1740
     12 C           4.2690    0.6121    0.0000 C.ar    1  UNL1        0.0403
     13 C           7.7953   -0.4121    0.0000 C.ar    1  UNL1       -0.0481
     14 C           4.2690    2.6121    0.0000 C.ar    1  UNL1        0.1343
     15 C           4.2690   -0.3879    0.0000 C.3     1  UNL1       -0.0023
     16 C           8.6671    1.0846    0.0000 C.ar    1  UNL1       -0.0516
     17 C           8.6594   -0.9154    0.0000 C.ar    1  UNL1       -0.0019
     18 C           3.4030    1.1121    0.0000 C.ar    1  UNL1        0.1273
     19 C           3.4030    2.1121    0.0000 C.ar    1  UNL1        0.0225
     20 C           9.5273   -0.4188    0.0000 C.ar    1  UNL1        0.1203
     21 C           8.6555   -1.9154    0.0000 C.3     1  UNL1       -0.0058
     22 C           9.5312    0.5812    0.0000 C.ar    1  UNL1       -0.0195
     23 C           3.4030   -0.8879    0.0000 C.2     1  UNL1       -0.0807
     24 C           9.5196   -2.4187    0.0000 C.2     1  UNL1       -0.0809
     25 C           3.4030   -1.8879    0.0000 C.2     1  UNL1       -0.0793
     26 C           9.5157   -3.4187    0.0000 C.2     1  UNL1       -0.0793
     27 C           2.5369   -2.3879    0.0000 C.3     1  UNL1       -0.0440
     28 C           4.2690   -2.3879    0.0000 C.3     1  UNL1       -0.0440
     29 C          10.3798   -3.9221    0.0000 C.3     1  UNL1       -0.0440
     30 C           8.6478   -3.9154    0.0000 C.3     1  UNL1       -0.0440
     31 H           7.4726    1.4002    0.0000 H       1  UNL1        0.0789
     32 H           7.5459    2.0268    0.0000 H       1  UNL1        0.0385
     33 H           7.1441    2.7166    0.0000 H       1  UNL1        0.0385
     34 H           7.2571   -0.7200    0.0000 H       1  UNL1        0.0625
     35 H           4.4810   -0.9705    0.0000 H       1  UNL1        0.0358
     36 H           4.8796   -0.2803    0.0000 H       1  UNL1        0.0358
     37 H           8.6694    1.7046    0.0000 H       1  UNL1        0.0623
     38 H           2.8660    2.4221    0.0000 H       1  UNL1        0.0691
     39 H           8.0453   -1.8054    0.0000 H       1  UNL1        0.0357
     40 H           8.4412   -2.4972    0.0000 H       1  UNL1        0.0357
     41 H          10.0693    0.8892    0.0000 H       1  UNL1        0.0654
     42 H           2.8660   -0.5779    0.0000 H       1  UNL1        0.0575
     43 H          10.0577   -2.1108    0.0000 H       1  UNL1        0.0575
     44 H           3.7320    3.9221    0.0000 H       1  UNL1        0.2922
     45 H           2.0000    0.9221    0.0000 H       1  UNL1        0.2921
     46 H          10.9295   -0.6142    0.0000 H       1  UNL1        0.2921
     47 H           2.2269   -1.8510    0.0000 H       1  UNL1        0.0274
     48 H           2.0000   -2.6979    0.0000 H       1  UNL1        0.0274
     49 H           2.8469   -2.9249    0.0000 H       1  UNL1        0.0274
     50 H           3.9590   -2.9249    0.0000 H       1  UNL1        0.0274
     51 H           4.8059   -2.6979    0.0000 H       1  UNL1        0.0274
     52 H           4.5790   -1.8510    0.0000 H       1  UNL1        0.0274
     53 H          10.0678   -4.4578    0.0000 H       1  UNL1        0.0274
     54 H          10.9156   -4.2341    0.0000 H       1  UNL1        0.0274
     55 H           8.3399   -3.3773    0.0000 H       1  UNL1        0.0274
     56 H           8.1097   -4.2233    0.0000 H       1  UNL1        0.0274
     57 H           8.9557   -4.4535    0.0000 H       1  UNL1        0.0274
     58 H          10.6919   -3.3863    0.0000 H       1  UNL1        0.0274
@<TRIPOS>BOND
     1     1     6    1
     2     1     8    1
     3     2    11    2
     4     3    14    1
     5     3    44    1
     6     4    18    1
     7     4    45    1
     8     5    20    1
     9     5    46    1
    10     6     7    1
    11     6     9    1
    12     6    31    1
    13     7    11    1
    14     7    32    1
    15     7    33    1
    16     8    10   ar
    17     8    12   ar
    18     9    13   ar
    19     9    16   ar
    20    10    11    1
    21    10    14   ar
    22    12    15    1
    23    12    18   ar
    24    13    17   ar
    25    13    34    1
    26    14    19   ar
    27    15    23    1
    28    15    35    1
    29    15    36    1
    30    16    22   ar
    31    16    37    1
    32    17    20   ar
    33    17    21    1
    34    18    19   ar
    35    19    38    1
    36    20    22   ar
    37    21    24    1
    38    21    39    1
    39    21    40    1
    40    22    41    1
    41    23    25    2
    42    23    42    1
    43    24    26    2
    44    24    43    1
    45    25    27    1
    46    25    28    1
    47    26    29    1
    48    26    30    1
    49    27    47    1
    50    27    48    1
    51    27    49    1
    52    28    50    1
    53    28    51    1
    54    28    52    1
    55    29    53    1
    56    29    54    1
    57    29    58    1
    58    30    55    1
    59    30    56    1
    60    30    57    1
