@<TRIPOS>MOLECULE
IMPHY006878
 91 90 0 0 0
SMALL
GASTEIGER

@<TRIPOS>ATOM
      1 O          14.9904    0.9400    0.0000 O.3     1  UNL1       -0.4441
      2 O          15.8564   -0.5600    0.0000 O.2     1  UNL1       -0.2508
      3 C          19.3205    0.4400    0.0000 C.3     1  UNL1       -0.0530
      4 C          20.1865    0.9400    0.0000 C.3     1  UNL1       -0.0528
      5 C          18.4545    0.9400    0.0000 C.3     1  UNL1       -0.0526
      6 C          21.0526    0.4400    0.0000 C.3     1  UNL1       -0.0496
      7 C          17.5885    0.4400    0.0000 C.3     1  UNL1       -0.0430
      8 C           4.5981    2.9400    0.0000 C.3     1  UNL1       -0.0531
      9 C           5.4641    2.4400    0.0000 C.3     1  UNL1       -0.0528
     10 C          21.9186    0.9400    0.0000 C.3     1  UNL1       -0.0348
     11 C           3.7320    2.4400    0.0000 C.3     1  UNL1       -0.0533
     12 C           6.3301    2.9400    0.0000 C.3     1  UNL1       -0.0496
     13 C          16.7224    0.9400    0.0000 C.3     1  UNL1        0.0450
     14 C           2.8660    2.9400    0.0000 C.3     1  UNL1       -0.0559
     15 C           7.1962    2.4400    0.0000 C.3     1  UNL1       -0.0347
     16 C          22.7846    0.4400    0.0000 C.2     1  UNL1       -0.0876
     17 C           2.0000    2.4400    0.0000 C.3     1  UNL1       -0.0653
     18 C          15.8564    0.4400    0.0000 C.2     1  UNL1        0.3085
     19 C          27.1147   -1.0600    0.0000 C.3     1  UNL1       -0.0496
     20 C          27.1147   -2.0600    0.0000 C.3     1  UNL1       -0.0530
     21 C          23.6506    0.9400    0.0000 C.2     1  UNL1       -0.0842
     22 C          26.2487   -0.5600    0.0000 C.3     1  UNL1       -0.0348
     23 C           8.0622    2.9400    0.0000 C.2     1  UNL1       -0.0870
     24 C          24.5167    0.4400    0.0000 C.3     1  UNL1       -0.0165
     25 C          27.9808   -2.5600    0.0000 C.3     1  UNL1       -0.0559
     26 C          26.2487    0.4400    0.0000 C.2     1  UNL1       -0.0876
     27 C          25.3827    0.9400    0.0000 C.2     1  UNL1       -0.0842
     28 C           8.9282    2.4400    0.0000 C.2     1  UNL1       -0.0762
     29 C          27.9808   -3.5600    0.0000 C.3     1  UNL1       -0.0653
     30 C          14.1244    0.4400    0.0000 C.3     1  UNL1        0.1821
     31 C           9.7942    2.9400    0.0000 C.3     1  UNL1        0.0282
     32 C          14.1244   -0.5600    0.0000 C.2     1  UNL1       -0.0389
     33 C          13.2583    0.9400    0.0000 C.1     1  UNL1       -0.0400
     34 C          10.6603    2.4400    0.0000 C.1     1  UNL1       -0.0843
     35 C          13.2583   -1.0600    0.0000 C.2     1  UNL1       -0.0982
     36 C          12.3923    1.4400    0.0000 C.1     1  UNL1       -0.0109
     37 C          11.5263    1.9400    0.0000 C.1     1  UNL1       -0.0144
     38 H          18.9220   -0.0349    0.0000 H       1  UNL1        0.0265
     39 H          19.7190   -0.0349    0.0000 H       1  UNL1        0.0265
     40 H          20.5851    1.4150    0.0000 H       1  UNL1        0.0265
     41 H          19.7880    1.4150    0.0000 H       1  UNL1        0.0265
     42 H          18.8530    1.4150    0.0000 H       1  UNL1        0.0265
     43 H          18.0560    1.4150    0.0000 H       1  UNL1        0.0265
     44 H          20.6540   -0.0349    0.0000 H       1  UNL1        0.0268
     45 H          21.4511   -0.0349    0.0000 H       1  UNL1        0.0268
     46 H          17.1899   -0.0349    0.0000 H       1  UNL1        0.0270
     47 H          17.9870   -0.0349    0.0000 H       1  UNL1        0.0270
     48 H           4.9966    3.4150    0.0000 H       1  UNL1        0.0265
     49 H           4.1996    3.4150    0.0000 H       1  UNL1        0.0265
     50 H           5.0656    1.9650    0.0000 H       1  UNL1        0.0265
     51 H           5.8626    1.9650    0.0000 H       1  UNL1        0.0265
     52 H          22.3171    1.4150    0.0000 H       1  UNL1        0.0307
     53 H          21.5201    1.4150    0.0000 H       1  UNL1        0.0307
     54 H           3.3335    1.9650    0.0000 H       1  UNL1        0.0265
     55 H           4.1306    1.9650    0.0000 H       1  UNL1        0.0265
     56 H           6.7287    3.4150    0.0000 H       1  UNL1        0.0268
     57 H           5.9316    3.4150    0.0000 H       1  UNL1        0.0268
     58 H          17.1210    1.4150    0.0000 H       1  UNL1        0.0377
     59 H          16.3239    1.4150    0.0000 H       1  UNL1        0.0377
     60 H           3.2646    3.4150    0.0000 H       1  UNL1        0.0263
     61 H           2.4675    3.4150    0.0000 H       1  UNL1        0.0263
     62 H           6.7976    1.9650    0.0000 H       1  UNL1        0.0307
     63 H           7.5947    1.9650    0.0000 H       1  UNL1        0.0307
     64 H          22.7846   -0.1800    0.0000 H       1  UNL1        0.0569
     65 H           1.6900    2.9769    0.0000 H       1  UNL1        0.0230
     66 H           1.4631    2.1300    0.0000 H       1  UNL1        0.0230
     67 H           2.3100    1.9031    0.0000 H       1  UNL1        0.0230
     68 H          27.7253   -1.1677    0.0000 H       1  UNL1        0.0268
     69 H          27.3268   -0.4774    0.0000 H       1  UNL1        0.0268
     70 H          26.5042   -1.9523    0.0000 H       1  UNL1        0.0265
     71 H          26.9027   -2.6426    0.0000 H       1  UNL1        0.0265
     72 H          23.6506    1.5600    0.0000 H       1  UNL1        0.0572
     73 H          25.6381   -0.4523    0.0000 H       1  UNL1        0.0307
     74 H          26.0367   -1.1426    0.0000 H       1  UNL1        0.0307
     75 H           8.0622    3.5600    0.0000 H       1  UNL1        0.0569
     76 H          24.1181   -0.0349    0.0000 H       1  UNL1        0.0350
     77 H          24.9152   -0.0349    0.0000 H       1  UNL1        0.0350
     78 H          28.5913   -2.6677    0.0000 H       1  UNL1        0.0263
     79 H          28.1928   -1.9774    0.0000 H       1  UNL1        0.0263
     80 H          26.7856    0.7500    0.0000 H       1  UNL1        0.0569
     81 H          25.3827    1.5600    0.0000 H       1  UNL1        0.0572
     82 H           8.9282    1.8200    0.0000 H       1  UNL1        0.0578
     83 H          27.3608   -3.5600    0.0000 H       1  UNL1        0.0230
     84 H          27.9808   -4.1800    0.0000 H       1  UNL1        0.0230
     85 H          28.6008   -3.5600    0.0000 H       1  UNL1        0.0230
     86 H          14.1244    1.0600    0.0000 H       1  UNL1        0.0921
     87 H          10.1928    3.4150    0.0000 H       1  UNL1        0.0441
     88 H           9.3957    3.4150    0.0000 H       1  UNL1        0.0441
     89 H          14.6613   -0.8700    0.0000 H       1  UNL1        0.0613
     90 H          12.7214   -0.7500    0.0000 H       1  UNL1        0.0533
     91 H          13.2583   -1.6800    0.0000 H       1  UNL1        0.0533
@<TRIPOS>BOND
     1     1    18    1
     2     1    30    1
     3     2    18    2
     4     3     4    1
     5     3     5    1
     6     3    38    1
     7     3    39    1
     8     4     6    1
     9     4    40    1
    10     4    41    1
    11     5     7    1
    12     5    42    1
    13     5    43    1
    14     6    10    1
    15     6    44    1
    16     6    45    1
    17     7    13    1
    18     7    46    1
    19     7    47    1
    20     8     9    1
    21     8    11    1
    22     8    48    1
    23     8    49    1
    24     9    12    1
    25     9    50    1
    26     9    51    1
    27    10    16    1
    28    10    52    1
    29    10    53    1
    30    11    14    1
    31    11    54    1
    32    11    55    1
    33    12    15    1
    34    12    56    1
    35    12    57    1
    36    13    18    1
    37    13    58    1
    38    13    59    1
    39    14    17    1
    40    14    60    1
    41    14    61    1
    42    15    23    1
    43    15    62    1
    44    15    63    1
    45    16    21    2
    46    16    64    1
    47    17    65    1
    48    17    66    1
    49    17    67    1
    50    19    20    1
    51    19    22    1
    52    19    68    1
    53    19    69    1
    54    20    25    1
    55    20    70    1
    56    20    71    1
    57    21    24    1
    58    21    72    1
    59    22    26    1
    60    22    73    1
    61    22    74    1
    62    23    28    2
    63    23    75    1
    64    24    27    1
    65    24    76    1
    66    24    77    1
    67    25    29    1
    68    25    78    1
    69    25    79    1
    70    26    27    2
    71    26    80    1
    72    27    81    1
    73    28    31    1
    74    28    82    1
    75    29    83    1
    76    29    84    1
    77    29    85    1
    78    30    32    1
    79    30    33    1
    80    30    86    1
    81    31    34    1
    82    31    87    1
    83    31    88    1
    84    32    35    2
    85    32    89    1
    86    33    36    3
    87    34    37    3
    88    35    90    1
    89    35    91    1
    90    36    37    1
