@<TRIPOS>MOLECULE
IMPHY006160
 96 101 0 0 0
SMALL
GASTEIGER

@<TRIPOS>ATOM
      1 O          10.3312   -1.7857    0.0000 O.3     1  UNL1       -0.3366
      2 O           8.5991    0.2143    0.0000 O.3     1  UNL1       -0.3313
      3 O           9.4651   -3.2857    0.0000 O.3     1  UNL1       -0.3431
      4 O           6.0010   -0.2857    0.0000 O.3     1  UNL1       -0.3461
      5 O           8.5991   -2.7857    0.0000 O.3     1  UNL1       -0.3863
      6 O          10.3312    0.2143    0.0000 O.3     1  UNL1       -0.4532
      7 O           6.8671   -1.7857    0.0000 O.3     1  UNL1       -0.3865
      8 O           5.1350    1.2143    0.0000 O.3     1  UNL1       -0.3431
      9 O          12.0632   -2.7857    0.0000 O.3     1  UNL1       -0.3841
     10 O          12.0632   -4.7857    0.0000 O.3     1  UNL1       -0.3864
     11 O          10.3312   -5.7857    0.0000 O.3     1  UNL1       -0.3866
     12 O           4.2690   -1.2857    0.0000 O.3     1  UNL1       -0.3841
     13 O           2.5369   -0.2857    0.0000 O.3     1  UNL1       -0.3864
     14 O           2.5369    1.7143    0.0000 O.3     1  UNL1       -0.3866
     15 O          11.1972    2.7143    0.0000 O.2     1  UNL1       -0.4507
     16 O           8.5991    1.2143    0.0000 O.2     1  UNL1       -0.2830
     17 O           7.6950    2.7112    0.0000 O.3     1  UNL1       -0.5058
     18 O           9.4530    5.7836    0.0000 O.3     1  UNL1       -0.5065
     19 O          14.6613    1.7143    0.0000 O.3     1  UNL1       -0.4914
     20 O          14.6613   -0.2857    0.0000 O.3     1  UNL1       -0.5033
     21 C           9.4651   -1.2857    0.0000 C.3     1  UNL1        0.1519
     22 C           8.5991   -1.7857    0.0000 C.3     1  UNL1        0.1155
     23 C           7.7331   -1.2857    0.0000 C.3     1  UNL1        0.1120
     24 C           7.7331   -0.2857    0.0000 C.3     1  UNL1        0.1144
     25 C           9.4651   -0.2857    0.0000 C.3     1  UNL1        0.2315
     26 C          10.3312   -2.7857    0.0000 C.3     1  UNL1        0.1885
     27 C          11.1972   -3.2857    0.0000 C.3     1  UNL1        0.1341
     28 C          11.1972   -4.2857    0.0000 C.3     1  UNL1        0.1140
     29 C           6.8671    0.2143    0.0000 C.3     1  UNL1        0.0796
     30 C          10.3312   -4.7857    0.0000 C.3     1  UNL1        0.1095
     31 C           9.4651   -4.2857    0.0000 C.3     1  UNL1        0.0873
     32 C           5.1350    0.2143    0.0000 C.3     1  UNL1        0.1879
     33 C           4.2690   -0.2857    0.0000 C.3     1  UNL1        0.1341
     34 C           3.4030    0.2143    0.0000 C.3     1  UNL1        0.1140
     35 C           3.4030    1.2143    0.0000 C.3     1  UNL1        0.1095
     36 C           4.2690    1.7143    0.0000 C.3     1  UNL1        0.0873
     37 C           8.5991   -4.7857    0.0000 C.3     1  UNL1       -0.0361
     38 C           4.2690    2.7143    0.0000 C.3     1  UNL1       -0.0361
     39 C          10.3312    1.2143    0.0000 C.ar    1  UNL1        0.2138
     40 C          11.1972    1.7143    0.0000 C.ar    1  UNL1        0.1810
     41 C           9.4651    1.7143    0.0000 C.ar    1  UNL1        0.2382
     42 C           9.4651    2.7143    0.0000 C.ar    1  UNL1        0.1092
     43 C          12.0632    1.2143    0.0000 C.ar    1  UNL1        0.0247
     44 C          10.3312    3.2143    0.0000 C.ar    1  UNL1        0.1465
     45 C           8.5551    3.2212    0.0000 C.ar    1  UNL1        0.1348
     46 C          10.3472    4.2558    0.0000 C.ar    1  UNL1        0.0231
     47 C          12.9292    1.7143    0.0000 C.ar    1  UNL1       -0.0055
     48 C          12.0632    0.2143    0.0000 C.ar    1  UNL1       -0.0473
     49 C           8.5471    4.2628    0.0000 C.ar    1  UNL1        0.0223
     50 C           9.4492    4.7836    0.0000 C.ar    1  UNL1        0.1239
     51 C          13.7953    1.2143    0.0000 C.ar    1  UNL1        0.1619
     52 C          12.9292   -0.2857    0.0000 C.ar    1  UNL1       -0.0159
     53 C          13.7953    0.2143    0.0000 C.ar    1  UNL1        0.1585
     54 C          14.6613    2.7143    0.0000 C.3     1  UNL1        0.0790
     55 H          10.0021   -0.9757    0.0000 H       1  UNL1        0.0687
     56 H           8.0622   -2.0957    0.0000 H       1  UNL1        0.0648
     57 H           7.1962   -0.9757    0.0000 H       1  UNL1        0.0647
     58 H           7.7331    0.3343    0.0000 H       1  UNL1        0.0647
     59 H           9.4651    0.3343    0.0000 H       1  UNL1        0.1084
     60 H           9.7942   -2.4757    0.0000 H       1  UNL1        0.0938
     61 H          11.7341   -3.5957    0.0000 H       1  UNL1        0.0671
     62 H          11.1972   -4.9057    0.0000 H       1  UNL1        0.0648
     63 H           7.2656    0.6893    0.0000 H       1  UNL1        0.0587
     64 H           6.4685    0.6893    0.0000 H       1  UNL1        0.0587
     65 H           9.7942   -5.0957    0.0000 H       1  UNL1        0.0646
     66 H           8.9282   -3.9757    0.0000 H       1  UNL1        0.0621
     67 H           5.1350   -0.4057    0.0000 H       1  UNL1        0.0937
     68 H           3.7320   -0.5957    0.0000 H       1  UNL1        0.0671
     69 H           2.8660    0.5243    0.0000 H       1  UNL1        0.0648
     70 H           3.4030    1.8343    0.0000 H       1  UNL1        0.0646
     71 H           4.8059    2.0243    0.0000 H       1  UNL1        0.0621
     72 H           8.0622   -3.0957    0.0000 H       1  UNL1        0.2100
     73 H           6.8671   -2.4057    0.0000 H       1  UNL1        0.2100
     74 H           8.2891   -4.2487    0.0000 H       1  UNL1        0.0255
     75 H           8.0622   -5.0957    0.0000 H       1  UNL1        0.0255
     76 H           8.9091   -5.3226    0.0000 H       1  UNL1        0.0255
     77 H          12.6002   -3.0957    0.0000 H       1  UNL1        0.2101
     78 H          12.0632   -5.4057    0.0000 H       1  UNL1        0.2100
     79 H           4.8890    2.7143    0.0000 H       1  UNL1        0.0255
     80 H           4.2690    3.3343    0.0000 H       1  UNL1        0.0255
     81 H           3.6490    2.7143    0.0000 H       1  UNL1        0.0255
     82 H           9.7942   -6.0957    0.0000 H       1  UNL1        0.2100
     83 H           3.7320   -1.5957    0.0000 H       1  UNL1        0.2101
     84 H           2.0000    0.0243    0.0000 H       1  UNL1        0.2100
     85 H           2.5369    2.3343    0.0000 H       1  UNL1        0.2100
     86 H          10.8877    4.5596    0.0000 H       1  UNL1        0.0691
     87 H          12.9292    2.3343    0.0000 H       1  UNL1        0.0662
     88 H          11.5263   -0.0957    0.0000 H       1  UNL1        0.0626
     89 H           8.0090    4.5707    0.0000 H       1  UNL1        0.0691
     90 H          12.9292   -0.9057    0.0000 H       1  UNL1        0.0655
     91 H           7.1545    3.0150    0.0000 H       1  UNL1        0.2922
     92 H           8.9173    6.0957    0.0000 H       1  UNL1        0.2921
     93 H          14.6613   -0.9057    0.0000 H       1  UNL1        0.2923
     94 H          15.2813    2.7143    0.0000 H       1  UNL1        0.0660
     95 H          14.6613    3.3343    0.0000 H       1  UNL1        0.0660
     96 H          14.0413    2.7143    0.0000 H       1  UNL1        0.0660
@<TRIPOS>BOND
     1    21     1    1
     2    26     1    1
     3     2    24    1
     4     2    25    1
     5     3    26    1
     6     3    31    1
     7     4    29    1
     8    32     4    1
     9    22     5    1
    10     5    72    1
    11     6    25    1
    12     6    39    1
    13    23     7    1
    14     7    73    1
    15     8    32    1
    16     8    36    1
    17    27     9    1
    18     9    77    1
    19    28    10    1
    20    10    78    1
    21    30    11    1
    22    11    82    1
    23    33    12    1
    24    12    83    1
    25    34    13    1
    26    13    84    1
    27    35    14    1
    28    14    85    1
    29    15    40   ar
    30    15    44   ar
    31    16    41    2
    32    17    45    1
    33    17    91    1
    34    18    50    1
    35    18    92    1
    36    19    51    1
    37    19    54    1
    38    20    53    1
    39    20    93    1
    40    21    22    1
    41    21    25    1
    42    21    55    1
    43    22    23    1
    44    22    56    1
    45    23    24    1
    46    23    57    1
    47    24    29    1
    48    24    58    1
    49    25    59    1
    50    26    27    1
    51    26    60    1
    52    27    28    1
    53    27    61    1
    54    28    30    1
    55    28    62    1
    56    29    63    1
    57    29    64    1
    58    30    31    1
    59    30    65    1
    60    31    37    1
    61    31    66    1
    62    32    33    1
    63    32    67    1
    64    33    34    1
    65    33    68    1
    66    34    35    1
    67    34    69    1
    68    35    36    1
    69    35    70    1
    70    36    38    1
    71    36    71    1
    72    37    74    1
    73    37    75    1
    74    37    76    1
    75    38    79    1
    76    38    80    1
    77    38    81    1
    78    39    40   ar
    79    39    41   ar
    80    40    43    1
    81    41    42   ar
    82    42    44   ar
    83    42    45   ar
    84    43    47   ar
    85    43    48   ar
    86    44    46   ar
    87    45    49   ar
    88    46    50   ar
    89    46    86    1
    90    47    51   ar
    91    47    87    1
    92    48    52   ar
    93    48    88    1
    94    49    50   ar
    95    49    89    1
    96    51    53   ar
    97    52    53   ar
    98    52    90    1
    99    54    94    1
   100    54    95    1
   101    54    96    1
