@<TRIPOS>MOLECULE
IMPHY014188
 68 70 0 0 0
SMALL
GASTEIGER

@<TRIPOS>ATOM
      1 O           8.1301   -1.7635    0.0000 O.2     1  UNL1       -0.4542
      2 O           4.6000   -1.7877    0.0000 O.3     1  UNL1       -0.4917
      3 O          11.6602    0.2606    0.0000 O.3     1  UNL1       -0.4911
      4 O          11.6602   -1.7877    0.0000 O.3     1  UNL1       -0.4884
      5 O           6.3817    1.2711    0.0000 O.3     1  UNL1       -0.5055
      6 O           8.1301    1.2365    0.0000 O.2     1  UNL1       -0.2863
      7 C           8.9961   -0.2635    0.0000 C.ar    1  UNL1        0.0719
      8 C           9.8901    0.2712    0.0000 C.ar    1  UNL1        0.0160
      9 C           7.2641   -0.2635    0.0000 C.ar    1  UNL1        0.1064
     10 C           8.9961   -1.2635    0.0000 C.ar    1  UNL1        0.1432
     11 C           7.2641   -1.2635    0.0000 C.ar    1  UNL1        0.1463
     12 C           8.1301    0.2365    0.0000 C.ar    1  UNL1        0.2041
     13 C           5.4641   -0.2427    0.0000 C.ar    1  UNL1        0.0403
     14 C           6.3701    0.2712    0.0000 C.ar    1  UNL1        0.1381
     15 C           9.8785    1.2711    0.0000 C.3     1  UNL1       -0.0049
     16 C          10.7961   -0.2427    0.0000 C.ar    1  UNL1        0.1659
     17 C           5.4641   -1.2843    0.0000 C.ar    1  UNL1        0.1309
     18 C           9.8901   -1.7982    0.0000 C.ar    1  UNL1        0.0268
     19 C           6.3701   -1.7982    0.0000 C.ar    1  UNL1        0.0236
     20 C          10.7961   -1.2843    0.0000 C.ar    1  UNL1        0.1657
     21 C           4.6000    0.2606    0.0000 C.3     1  UNL1       -0.0023
     22 C          10.7387    1.7811    0.0000 C.2     1  UNL1       -0.0808
     23 C           3.7320   -0.2360    0.0000 C.2     1  UNL1       -0.0807
     24 C          10.7271    2.7810    0.0000 C.2     1  UNL1       -0.0793
     25 C           2.8680    0.2673    0.0000 C.2     1  UNL1       -0.0793
     26 C           4.6038   -2.7877    0.0000 C.3     1  UNL1        0.0868
     27 C          11.6564   -2.7877    0.0000 C.3     1  UNL1        0.0870
     28 C          12.5282   -0.2360    0.0000 C.3     1  UNL1        0.0790
     29 C          11.5873    3.2910    0.0000 C.3     1  UNL1       -0.0440
     30 C           9.8554    3.2710    0.0000 C.3     1  UNL1       -0.0440
     31 C           2.0000   -0.2293    0.0000 C.3     1  UNL1       -0.0440
     32 C           2.8718    1.2673    0.0000 C.3     1  UNL1       -0.0440
     33 C           3.7398   -3.2910    0.0000 C.3     1  UNL1       -0.0307
     34 C          12.5205   -3.2910    0.0000 C.3     1  UNL1       -0.0307
     35 H           9.6597    1.8512    0.0000 H       1  UNL1        0.0357
     36 H           9.2692    1.1564    0.0000 H       1  UNL1        0.0357
     37 H           9.8829   -2.4181    0.0000 H       1  UNL1        0.0692
     38 H           6.3773   -2.4181    0.0000 H       1  UNL1        0.0691
     39 H           5.0003    0.7341    0.0000 H       1  UNL1        0.0358
     40 H           4.2033    0.7371    0.0000 H       1  UNL1        0.0358
     41 H          11.2792    1.4773    0.0000 H       1  UNL1        0.0575
     42 H           3.7296   -0.8560    0.0000 H       1  UNL1        0.0575
     43 H           5.8484    1.5873    0.0000 H       1  UNL1        0.2922
     44 H           4.8181   -3.3694    0.0000 H       1  UNL1        0.0694
     45 H           5.2140   -2.6776    0.0000 H       1  UNL1        0.0694
     46 H          11.0462   -2.6776    0.0000 H       1  UNL1        0.0694
     47 H          11.4421   -3.3694    0.0000 H       1  UNL1        0.0694
     48 H          12.2203   -0.7741    0.0000 H       1  UNL1        0.0660
     49 H          13.0663   -0.5439    0.0000 H       1  UNL1        0.0660
     50 H          12.8361    0.3021    0.0000 H       1  UNL1        0.0660
     51 H          11.9035    2.7577    0.0000 H       1  UNL1        0.0274
     52 H          12.1206    3.6072    0.0000 H       1  UNL1        0.0274
     53 H          11.2711    3.8243    0.0000 H       1  UNL1        0.0274
     54 H          10.1592    3.8114    0.0000 H       1  UNL1        0.0274
     55 H           9.3149    3.5747    0.0000 H       1  UNL1        0.0274
     56 H           9.5516    2.7305    0.0000 H       1  UNL1        0.0274
     57 H           1.6921    0.3088    0.0000 H       1  UNL1        0.0274
     58 H           1.4619   -0.5373    0.0000 H       1  UNL1        0.0274
     59 H           2.3079   -0.7675    0.0000 H       1  UNL1        0.0274
     60 H           3.4918    1.2649    0.0000 H       1  UNL1        0.0274
     61 H           2.8742    1.8873    0.0000 H       1  UNL1        0.0274
     62 H           2.2518    1.2697    0.0000 H       1  UNL1        0.0274
     63 H           3.4277   -2.7553    0.0000 H       1  UNL1        0.0262
     64 H           3.2040   -3.6030    0.0000 H       1  UNL1        0.0262
     65 H           4.0518   -3.8267    0.0000 H       1  UNL1        0.0262
     66 H          12.2084   -3.8267    0.0000 H       1  UNL1        0.0262
     67 H          13.0562   -3.6030    0.0000 H       1  UNL1        0.0262
     68 H          12.8325   -2.7553    0.0000 H       1  UNL1        0.0262
@<TRIPOS>BOND
     1     1    10   ar
     2     1    11   ar
     3     2    17    1
     4     2    26    1
     5     3    16    1
     6     3    28    1
     7     4    20    1
     8     4    27    1
     9     5    14    1
    10     5    43    1
    11     6    12    2
    12     7     8   ar
    13     7    10   ar
    14     7    12   ar
    15     8    15    1
    16     8    16   ar
    17     9    11   ar
    18     9    12   ar
    19     9    14   ar
    20    10    18   ar
    21    11    19   ar
    22    13    14   ar
    23    13    17   ar
    24    13    21    1
    25    15    22    1
    26    15    35    1
    27    15    36    1
    28    16    20   ar
    29    17    19   ar
    30    18    20   ar
    31    18    37    1
    32    19    38    1
    33    21    23    1
    34    21    39    1
    35    21    40    1
    36    22    24    2
    37    22    41    1
    38    23    25    2
    39    23    42    1
    40    24    29    1
    41    24    30    1
    42    25    31    1
    43    25    32    1
    44    26    33    1
    45    26    44    1
    46    26    45    1
    47    27    34    1
    48    27    46    1
    49    27    47    1
    50    28    48    1
    51    28    49    1
    52    28    50    1
    53    29    51    1
    54    29    52    1
    55    29    53    1
    56    30    54    1
    57    30    55    1
    58    30    56    1
    59    31    57    1
    60    31    58    1
    61    31    59    1
    62    32    60    1
    63    32    61    1
    64    32    62    1
    65    33    63    1
    66    33    64    1
    67    33    65    1
    68    34    66    1
    69    34    67    1
    70    34    68    1
