@<TRIPOS>MOLECULE
IMPHY008456
 57 60 0 0 0
SMALL
GASTEIGER

@<TRIPOS>ATOM
      1 O           5.4584   -3.6902    0.0000 O.3     1  UNL1       -0.3649
      2 O           6.5011    0.4448    0.0000 O.3     1  UNL1       -0.3879
      3 O           5.3510   -0.0348    0.0000 O.3     1  UNL1       -0.4574
      4 O           3.7905   -0.7863    0.0000 O.2     1  UNL1       -0.2450
      5 O           2.6183    3.6438    0.0000 O.3     1  UNL1       -0.5068
      6 C           7.4084   -1.7176    0.0000 C.3     1  UNL1       -0.0207
      7 C           6.7849   -0.9357    0.0000 C.3     1  UNL1        0.0308
      8 C           5.3839   -2.6925    0.0000 C.3     1  UNL1        0.0966
      9 C           7.3347   -0.1075    0.0000 C.3     1  UNL1        0.0751
     10 C           6.2849   -3.1264    0.0000 C.3     1  UNL1        0.0887
     11 C           7.1859   -2.6925    0.0000 C.3     1  UNL1       -0.0180
     12 C           5.7849   -0.9357    0.0000 C.3     1  UNL1        0.1120
     13 C           8.3382   -1.3659    0.0000 C.3     1  UNL1       -0.0445
     14 C           5.1614   -1.7176    0.0000 C.3     1  UNL1        0.0161
     15 C           8.2927   -0.3728    0.0000 C.3     1  UNL1       -0.0229
     16 C           8.0319   -2.4994    0.0000 C.3     1  UNL1       -0.0590
     17 C           7.6024    0.8560    0.0000 C.3     1  UNL1       -0.0174
     18 C           4.4830   -2.2586    0.0000 C.3     1  UNL1       -0.0332
     19 C           8.5706    1.1059    0.0000 C.3     1  UNL1       -0.0600
     20 C           6.9018    1.5696    0.0000 C.3     1  UNL1       -0.0600
     21 C           4.3538    0.0400    0.0000 C.2     1  UNL1        0.3395
     22 C           3.9199    0.9409    0.0000 C.ar    1  UNL1        0.0592
     23 C           4.4832    1.7672    0.0000 C.ar    1  UNL1       -0.0443
     24 C           2.9227    1.0157    0.0000 C.ar    1  UNL1       -0.0443
     25 C           4.0493    2.6681    0.0000 C.ar    1  UNL1       -0.0194
     26 C           2.4888    1.9166    0.0000 C.ar    1  UNL1       -0.0194
     27 C           3.0522    2.7429    0.0000 C.ar    1  UNL1        0.1169
     28 H           6.3831   -0.1867    0.0000 H       1  UNL1        0.0370
     29 H           6.7100   -3.8624    0.0000 H       1  UNL1        0.0625
     30 H           7.3238   -3.2970    0.0000 H       1  UNL1        0.0296
     31 H           7.8059   -2.6925    0.0000 H       1  UNL1        0.0296
     32 H           5.1688   -0.8663    0.0000 H       1  UNL1        0.0739
     33 H           8.4954   -1.9656    0.0000 H       1  UNL1        0.0272
     34 H           8.9511   -1.2726    0.0000 H       1  UNL1        0.0272
     35 H           4.7748   -1.2328    0.0000 H       1  UNL1        0.0330
     36 H           4.6028   -1.9866    0.0000 H       1  UNL1        0.0330
     37 H           8.9116   -0.4097    0.0000 H       1  UNL1        0.0293
     38 H           8.3945    0.2388    0.0000 H       1  UNL1        0.0293
     39 H           7.5471   -2.8860    0.0000 H       1  UNL1        0.0235
     40 H           8.4184   -2.9841    0.0000 H       1  UNL1        0.0235
     41 H           8.5166   -2.1128    0.0000 H       1  UNL1        0.0235
     42 H           7.0020    0.7010    0.0000 H       1  UNL1        0.0323
     43 H           4.7520   -1.7000    0.0000 H       1  UNL1        0.0258
     44 H           3.9244   -1.9896    0.0000 H       1  UNL1        0.0258
     45 H           4.2139   -2.8172    0.0000 H       1  UNL1        0.0258
     46 H           6.5392    1.0636    0.0000 H       1  UNL1        0.2102
     47 H           8.7256    0.5056    0.0000 H       1  UNL1        0.0233
     48 H           9.1710    1.2608    0.0000 H       1  UNL1        0.0233
     49 H           8.4157    1.7062    0.0000 H       1  UNL1        0.0233
     50 H           7.3442    2.0039    0.0000 H       1  UNL1        0.0233
     51 H           6.4675    2.0120    0.0000 H       1  UNL1        0.0233
     52 H           6.4594    1.1352    0.0000 H       1  UNL1        0.0233
     53 H           5.1015    1.7208    0.0000 H       1  UNL1        0.0627
     54 H           2.5735    0.5034    0.0000 H       1  UNL1        0.0627
     55 H           4.3986    3.1804    0.0000 H       1  UNL1        0.0654
     56 H           1.8706    1.9630    0.0000 H       1  UNL1        0.0654
     57 H           2.0000    3.6902    0.0000 H       1  UNL1        0.2921
@<TRIPOS>BOND
     1     1     8    1
     2     1    10    1
     3     9     2    1
     4     2    46    1
     5    12     3    1
     6     3    21    1
     7     4    21    2
     8     5    27    1
     9     5    57    1
    10     6     7    1
    11     6    11    1
    12     6    13    1
    13     6    16    1
    14     7     9    1
    15     7    12    1
    16     7    28    1
    17     8    10    1
    18     8    14    1
    19     8    18    1
    20     9    15    1
    21     9    17    1
    22    10    11    1
    23    10    29    1
    24    11    30    1
    25    11    31    1
    26    12    14    1
    27    12    32    1
    28    13    15    1
    29    13    33    1
    30    13    34    1
    31    14    35    1
    32    14    36    1
    33    15    37    1
    34    15    38    1
    35    16    39    1
    36    16    40    1
    37    16    41    1
    38    17    19    1
    39    17    20    1
    40    17    42    1
    41    18    43    1
    42    18    44    1
    43    18    45    1
    44    19    47    1
    45    19    48    1
    46    19    49    1
    47    20    50    1
    48    20    51    1
    49    20    52    1
    50    21    22    1
    51    22    23   ar
    52    22    24   ar
    53    23    25   ar
    54    23    53    1
    55    24    26   ar
    56    24    54    1
    57    25    27   ar
    58    25    55    1
    59    26    27   ar
    60    26    56    1
