@<TRIPOS>MOLECULE
IMPHY003302
 72 76 0 0 0
SMALL
GASTEIGER

@<TRIPOS>ATOM
      1 O           6.0432    2.0237    0.0000 O.3     1  UNL1       -0.3649
      2 O           7.7676    4.0304    0.0000 O.3     1  UNL1       -0.3865
      3 O           6.0317    5.0237    0.0000 O.3     1  UNL1       -0.3865
      4 O           4.3035    4.0170    0.0000 O.3     1  UNL1       -0.3865
      5 O           4.2690   -2.0216    0.0000 O.3     1  UNL1       -0.3431
      6 O           6.0010   -2.0216    0.0000 O.3     1  UNL1       -0.3441
      7 O           3.4432    2.5137    0.0000 O.3     1  UNL1       -0.3924
      8 O          10.3791    0.5404    0.0000 O.2     1  UNL1       -0.2864
      9 O           4.2690   -5.0216    0.0000 O.3     1  UNL1       -0.3864
     10 O           6.0010   -4.0216    0.0000 O.3     1  UNL1       -0.3841
     11 O           2.5369   -4.0216    0.0000 O.3     1  UNL1       -0.3866
     12 O           9.5408   -0.9943    0.0000 O.3     1  UNL1       -0.5060
     13 O          11.2775    2.0407    0.0000 O.3     1  UNL1       -0.5060
     14 C           6.9073    2.5270    0.0000 C.3     1  UNL1        0.0983
     15 C           7.7753    2.0304    0.0000 C.3     1  UNL1        0.0395
     16 C           6.9035    3.5270    0.0000 C.3     1  UNL1        0.1104
     17 C           6.0355    4.0237    0.0000 C.3     1  UNL1        0.1118
     18 C           5.1714    3.5203    0.0000 C.3     1  UNL1        0.1117
     19 C           5.1753    2.5204    0.0000 C.3     1  UNL1        0.1104
     20 C           7.7791    1.0304    0.0000 C.ar    1  UNL1       -0.0227
     21 C           8.6394    2.5337    0.0000 C.ar    1  UNL1       -0.0231
     22 C           8.6471    0.5337    0.0000 C.ar    1  UNL1        0.0676
     23 C           9.5073    2.0370    0.0000 C.ar    1  UNL1        0.0676
     24 C           4.3112    2.0170    0.0000 C.3     1  UNL1        0.0729
     25 C           6.8711    0.5200    0.0000 C.ar    1  UNL1       -0.0516
     26 C           9.5112    1.0370    0.0000 C.2     1  UNL1        0.2007
     27 C           8.6193    3.5751    0.0000 C.ar    1  UNL1       -0.0570
     28 C           6.8671   -0.5216    0.0000 C.ar    1  UNL1       -0.0181
     29 C           4.2690   -4.0216    0.0000 C.3     1  UNL1        0.1140
     30 C           5.1350   -3.5216    0.0000 C.3     1  UNL1        0.1341
     31 C           3.4030   -3.5216    0.0000 C.3     1  UNL1        0.1095
     32 C           5.1350   -2.5216    0.0000 C.3     1  UNL1        0.1882
     33 C           8.6671   -0.5077    0.0000 C.ar    1  UNL1        0.1283
     34 C           3.4030   -2.5216    0.0000 C.3     1  UNL1        0.0873
     35 C          10.4153    2.5474    0.0000 C.ar    1  UNL1        0.1279
     36 C           7.7711   -1.0389    0.0000 C.ar    1  UNL1       -0.0141
     37 C           6.0010   -1.0216    0.0000 C.3     1  UNL1        0.0759
     38 C           9.5153    4.1064    0.0000 C.ar    1  UNL1       -0.0580
     39 C          10.4194    3.5890    0.0000 C.ar    1  UNL1       -0.0194
     40 C           2.5369   -2.0216    0.0000 C.3     1  UNL1       -0.0361
     41 H           6.9106    1.6770    0.0000 H       1  UNL1        0.0632
     42 H           7.7720    2.8804    0.0000 H       1  UNL1        0.0424
     43 H           7.6412    3.1049    0.0000 H       1  UNL1        0.0646
     44 H           6.7700    4.4515    0.0000 H       1  UNL1        0.0647
     45 H           4.4370    3.0925    0.0000 H       1  UNL1        0.0647
     46 H           5.1786    1.6704    0.0000 H       1  UNL1        0.0646
     47 H           3.9145    1.5405    0.0000 H       1  UNL1        0.0584
     48 H           4.7115    1.5436    0.0000 H       1  UNL1        0.0584
     49 H           6.3366    0.8342    0.0000 H       1  UNL1        0.0624
     50 H           7.7652    4.6504    0.0000 H       1  UNL1        0.2100
     51 H           8.0776    3.8768    0.0000 H       1  UNL1        0.0621
     52 H           5.4935    5.3316    0.0000 H       1  UNL1        0.2100
     53 H           5.0051   -4.4466    0.0000 H       1  UNL1        0.0648
     54 H           5.8711   -3.0966    0.0000 H       1  UNL1        0.0671
     55 H           3.4030   -4.3716    0.0000 H       1  UNL1        0.0646
     56 H           4.3011    4.6370    0.0000 H       1  UNL1        0.2100
     57 H           5.1350   -1.6716    0.0000 H       1  UNL1        0.0937
     58 H           3.4030   -1.6716    0.0000 H       1  UNL1        0.0621
     59 H           7.7759   -1.6589    0.0000 H       1  UNL1        0.0658
     60 H           5.7890   -0.4390    0.0000 H       1  UNL1        0.0611
     61 H           5.3905   -1.1293    0.0000 H       1  UNL1        0.0611
     62 H           9.5105    4.7263    0.0000 H       1  UNL1        0.0619
     63 H          10.9563    3.8990    0.0000 H       1  UNL1        0.0654
     64 H           2.9075    2.2016    0.0000 H       1  UNL1        0.2095
     65 H           2.8469   -1.4847    0.0000 H       1  UNL1        0.0255
     66 H           2.0000   -1.7116    0.0000 H       1  UNL1        0.0255
     67 H           2.2269   -2.5585    0.0000 H       1  UNL1        0.0255
     68 H           3.7320   -5.3316    0.0000 H       1  UNL1        0.2100
     69 H           6.5380   -3.7116    0.0000 H       1  UNL1        0.2101
     70 H           2.0000   -3.7116    0.0000 H       1  UNL1        0.2100
     71 H           9.5503   -1.6142    0.0000 H       1  UNL1        0.2922
     72 H          11.8168    2.3466    0.0000 H       1  UNL1        0.2922
@<TRIPOS>BOND
     1     1    14    1
     2     1    19    1
     3     2    16    1
     4     2    50    1
     5     3    17    1
     6     3    52    1
     7     4    18    1
     8     4    56    1
     9     5    32    1
    10     5    34    1
    11     6    32    1
    12     6    37    1
    13     7    24    1
    14     7    64    1
    15     8    26    2
    16     9    29    1
    17     9    68    1
    18    10    30    1
    19    10    69    1
    20    11    31    1
    21    11    70    1
    22    12    33    1
    23    12    71    1
    24    13    35    1
    25    13    72    1
    26    14    15    1
    27    14    16    1
    28    14    41    1
    29    15    20    1
    30    15    21    1
    31    15    42    1
    32    16    17    1
    33    16    43    1
    34    17    18    1
    35    17    44    1
    36    18    19    1
    37    18    45    1
    38    19    24    1
    39    19    46    1
    40    20    22   ar
    41    20    25   ar
    42    21    23   ar
    43    21    27   ar
    44    22    26    1
    45    22    33   ar
    46    23    26    1
    47    23    35   ar
    48    24    47    1
    49    24    48    1
    50    25    28   ar
    51    25    49    1
    52    27    38   ar
    53    27    51    1
    54    28    36   ar
    55    28    37    1
    56    29    30    1
    57    29    31    1
    58    29    53    1
    59    30    32    1
    60    30    54    1
    61    31    34    1
    62    31    55    1
    63    32    57    1
    64    33    36   ar
    65    34    40    1
    66    34    58    1
    67    35    39   ar
    68    36    59    1
    69    37    60    1
    70    37    61    1
    71    38    39   ar
    72    38    62    1
    73    39    63    1
    74    40    65    1
    75    40    66    1
    76    40    67    1
