@<TRIPOS>MOLECULE
IMPHY007352
 37 38 0 0 0
SMALL
GASTEIGER

@<TRIPOS>ATOM
      1 C           4.0000   -0.1751    0.0000 C.3     1  UNL1        0.0020
      2 C           3.5000   -1.0412    0.0000 C.3     1  UNL1       -0.0305
      3 C           4.5878   -0.9841    0.0000 C.3     1  UNL1       -0.0391
      4 C           4.5878    0.6339    0.0000 C.3     1  UNL1       -0.0216
      5 C           5.5388   -0.6751    0.0000 C.3     1  UNL1       -0.0307
      6 C           5.5388    0.3249    0.0000 C.2     1  UNL1       -0.0699
      7 C           3.5000    0.6909    0.0000 C.2     1  UNL1       -0.0480
      8 C           2.5000   -1.0412    0.0000 C.3     1  UNL1       -0.0311
      9 C           4.0000   -1.9072    0.0000 C.3     1  UNL1       -0.0613
     10 C           2.5000    0.6909    0.0000 C.2     1  UNL1       -0.0625
     11 C           2.0000   -0.1751    0.0000 C.2     1  UNL1       -0.0835
     12 C           6.3479    0.9127    0.0000 C.2     1  UNL1       -0.0764
     13 C           4.0000    1.5569    0.0000 C.2     1  UNL1       -0.0950
     14 C           7.2614    0.5059    0.0000 C.3     1  UNL1       -0.0438
     15 C           6.2433    1.9072    0.0000 C.3     1  UNL1       -0.0438
     16 H           4.1200   -1.0412    0.0000 H       1  UNL1        0.0310
     17 H           4.0508   -1.2942    0.0000 H       1  UNL1        0.0277
     18 H           4.8400   -1.5505    0.0000 H       1  UNL1        0.0277
     19 H           4.8400    1.2003    0.0000 H       1  UNL1        0.0319
     20 H           4.0508    0.9439    0.0000 H       1  UNL1        0.0319
     21 H           5.6678   -1.2816    0.0000 H       1  UNL1        0.0310
     22 H           6.1554   -0.6103    0.0000 H       1  UNL1        0.0310
     23 H           1.9174   -1.2532    0.0000 H       1  UNL1        0.0310
     24 H           2.6077   -1.6517    0.0000 H       1  UNL1        0.0310
     25 H           3.4631   -2.2172    0.0000 H       1  UNL1        0.0233
     26 H           4.3100   -2.4441    0.0000 H       1  UNL1        0.0233
     27 H           4.5369   -1.5972    0.0000 H       1  UNL1        0.0233
     28 H           2.1900    1.2278    0.0000 H       1  UNL1        0.0617
     29 H           1.3800   -0.1751    0.0000 H       1  UNL1        0.0572
     30 H           4.6200    1.5569    0.0000 H       1  UNL1        0.0538
     31 H           3.6900    2.0939    0.0000 H       1  UNL1        0.0538
     32 H           7.0092   -0.0605    0.0000 H       1  UNL1        0.0274
     33 H           7.8278    0.2537    0.0000 H       1  UNL1        0.0274
     34 H           7.5136    1.0723    0.0000 H       1  UNL1        0.0274
     35 H           6.8599    1.9720    0.0000 H       1  UNL1        0.0274
     36 H           6.1785    2.5238    0.0000 H       1  UNL1        0.0274
     37 H           5.6267    1.8424    0.0000 H       1  UNL1        0.0274
@<TRIPOS>BOND
     1     1     2    1
     2     1     3    1
     3     1     4    1
     4     1     7    1
     5     2     8    1
     6     2     9    1
     7     2    16    1
     8     3     5    1
     9     3    17    1
    10     3    18    1
    11     4     6    1
    12     4    19    1
    13     4    20    1
    14     5     6    1
    15     5    21    1
    16     5    22    1
    17     6    12    2
    18     7    10    1
    19     7    13    2
    20     8    11    1
    21     8    23    1
    22     8    24    1
    23     9    25    1
    24     9    26    1
    25     9    27    1
    26    10    11    2
    27    10    28    1
    28    11    29    1
    29    12    14    1
    30    12    15    1
    31    13    30    1
    32    13    31    1
    33    14    32    1
    34    14    33    1
    35    14    34    1
    36    15    35    1
    37    15    36    1
    38    15    37    1
