@<TRIPOS>MOLECULE
IMPHY007072
 43 46 0 0 0
SMALL
GASTEIGER

@<TRIPOS>ATOM
      1 O           2.7976   -2.6529    0.0000 O.3     1  UNL1       -0.3917
      2 O           9.0636    2.9268    0.0000 O.2     1  UNL1       -0.2973
      3 N           3.0238    0.4080    0.0000 N.3     1  UNL1       -0.2986
      4 N           7.1227    0.5492    0.0000 N.3     1  UNL1       -0.2980
      5 C           5.0739    0.7145    0.0000 C.3     1  UNL1       -0.0122
      6 C           5.3327    1.6804    0.0000 C.3     1  UNL1       -0.0119
      7 C           3.8528   -0.1512    0.0000 C.3     1  UNL1        0.0167
      8 C           4.5961    2.6630    0.0000 C.3     1  UNL1       -0.0422
      9 C           6.7643    1.4828    0.0000 C.3     1  UNL1        0.0211
     10 C           3.2994    1.3693    0.0000 C.3     1  UNL1        0.0035
     11 C           6.3456   -0.0801    0.0000 C.3     1  UNL1        0.0035
     12 C           3.7962   -1.1912    0.0000 C.3     1  UNL1       -0.0108
     13 C           2.0807   -0.0341    0.0000 C.3     1  UNL1        0.0015
     14 C           7.4073    2.3023    0.0000 C.3     1  UNL1        0.0218
     15 C           2.8636   -1.6551    0.0000 C.3     1  UNL1        0.0578
     16 C           8.1489    0.3704    0.0000 C.3     1  UNL1        0.0059
     17 C           2.0000   -1.0726    0.0000 C.3     1  UNL1       -0.0140
     18 C           8.8106    1.1748    0.0000 C.3     1  UNL1        0.0187
     19 C           8.4373    2.1473    0.0000 C.2     1  UNL1        0.1361
     20 H           5.5762    1.0780    0.0000 H       1  UNL1        0.0328
     21 H           5.3372    1.0604    0.0000 H       1  UNL1        0.0328
     22 H           4.3957   -0.4507    0.0000 H       1  UNL1        0.0466
     23 H           4.9139    3.1954    0.0000 H       1  UNL1        0.0272
     24 H           3.9829    2.7550    0.0000 H       1  UNL1        0.0272
     25 H           7.3774    1.3905    0.0000 H       1  UNL1        0.0470
     26 H           3.2944    1.9893    0.0000 H       1  UNL1        0.0430
     27 H           2.6851    1.4531    0.0000 H       1  UNL1        0.0430
     28 H           5.9610   -0.5665    0.0000 H       1  UNL1        0.0430
     29 H           6.7865   -0.5160    0.0000 H       1  UNL1        0.0430
     30 H           3.9732   -1.7854    0.0000 H       1  UNL1        0.0305
     31 H           4.4119   -1.1185    0.0000 H       1  UNL1        0.0305
     32 H           1.9174    0.5640    0.0000 H       1  UNL1        0.0427
     33 H           1.4634   -0.0926    0.0000 H       1  UNL1        0.0427
     34 H           7.6031    2.8905    0.0000 H       1  UNL1        0.0357
     35 H           6.8612    2.5959    0.0000 H       1  UNL1        0.0357
     36 H           2.3068   -1.9279    0.0000 H       1  UNL1        0.0594
     37 H           7.9395   -0.2132    0.0000 H       1  UNL1        0.0431
     38 H           8.6880    0.0643    0.0000 H       1  UNL1        0.0431
     39 H           1.3992   -0.9195    0.0000 H       1  UNL1        0.0302
     40 H           1.7464   -1.6384    0.0000 H       1  UNL1        0.0302
     41 H           9.2150    0.7048    0.0000 H       1  UNL1        0.0354
     42 H           9.3429    1.4928    0.0000 H       1  UNL1        0.0354
     43 H           2.2414   -2.9268    0.0000 H       1  UNL1        0.2098
@<TRIPOS>BOND
     1     1    15    1
     2     1    43    1
     3     2    19    2
     4     3     7    1
     5     3    10    1
     6     3    13    1
     7     4     9    1
     8     4    11    1
     9     4    16    1
    10     5     7    1
    11     5     8    1
    12     5    11    1
    13     5    20    1
    14     6     8    1
    15     6     9    1
    16     6    10    1
    17     6    21    1
    18     7    12    1
    19     7    22    1
    20     8    23    1
    21     8    24    1
    22     9    14    1
    23     9    25    1
    24    10    26    1
    25    10    27    1
    26    11    28    1
    27    11    29    1
    28    12    15    1
    29    12    30    1
    30    12    31    1
    31    13    17    1
    32    13    32    1
    33    13    33    1
    34    14    19    1
    35    14    34    1
    36    14    35    1
    37    15    17    1
    38    15    36    1
    39    16    18    1
    40    16    37    1
    41    16    38    1
    42    17    39    1
    43    17    40    1
    44    18    19    1
    45    18    41    1
    46    18    42    1
