@<TRIPOS>MOLECULE
IMPHY013451
 77 81 0 0 0
SMALL
GASTEIGER

@<TRIPOS>ATOM
      1 O           7.2641   -0.2500    0.0000 O.3     1  UNL1       -0.3313
      2 O           4.6660   -2.7500    0.0000 O.3     1  UNL1       -0.3405
      3 O           6.3981   -2.7500    0.0000 O.3     1  UNL1       -0.3460
      4 O           8.1301   -2.7500    0.0000 O.3     1  UNL1       -0.3865
      5 O           9.8622   -1.7500    0.0000 O.3     1  UNL1       -0.3864
      6 O           8.1301    1.2500    0.0000 O.3     1  UNL1       -0.4532
      7 O           9.8622    0.2500    0.0000 O.3     1  UNL1       -0.3829
      8 O           6.3981   -4.7500    0.0000 O.3     1  UNL1       -0.3841
      9 O           4.6660   -5.7500    0.0000 O.3     1  UNL1       -0.3864
     10 O           2.9340   -4.7500    0.0000 O.3     1  UNL1       -0.3865
     11 O           2.9340   -1.7500    0.0000 O.3     1  UNL1       -0.3924
     12 O           6.3981    3.2500    0.0000 O.2     1  UNL1       -0.4507
     13 O           6.3981    0.2500    0.0000 O.2     1  UNL1       -0.2830
     14 O           4.6497    0.2154    0.0000 O.3     1  UNL1       -0.5058
     15 O           2.8680    3.2742    0.0000 O.3     1  UNL1       -0.4949
     16 O           8.9962    5.7500    0.0000 O.3     1  UNL1       -0.5033
     17 O          10.7282    4.7500    0.0000 O.3     1  UNL1       -0.5033
     18 C           7.2641   -1.2500    0.0000 C.3     1  UNL1        0.1144
     19 C           8.1301   -1.7500    0.0000 C.3     1  UNL1        0.1120
     20 C           8.9962   -1.2500    0.0000 C.3     1  UNL1        0.1152
     21 C           8.9962   -0.2500    0.0000 C.3     1  UNL1        0.1454
     22 C           5.5320   -4.2500    0.0000 C.3     1  UNL1        0.1341
     23 C           5.5320   -3.2500    0.0000 C.3     1  UNL1        0.1880
     24 C           4.6660   -4.7500    0.0000 C.3     1  UNL1        0.1141
     25 C           3.8000   -4.2500    0.0000 C.3     1  UNL1        0.1119
     26 C           3.8000   -3.2500    0.0000 C.3     1  UNL1        0.1130
     27 C           8.1301    0.2500    0.0000 C.3     1  UNL1        0.2311
     28 C           6.3981   -1.7500    0.0000 C.3     1  UNL1        0.0796
     29 C           2.9340   -2.7500    0.0000 C.3     1  UNL1        0.0730
     30 C           7.2641    1.7500    0.0000 C.ar    1  UNL1        0.2138
     31 C           7.2641    2.7500    0.0000 C.ar    1  UNL1        0.1810
     32 C           6.3981    1.2500    0.0000 C.ar    1  UNL1        0.2382
     33 C           5.5320    1.7500    0.0000 C.ar    1  UNL1        0.1092
     34 C           5.5320    2.7500    0.0000 C.ar    1  UNL1        0.1465
     35 C           8.1301    3.2500    0.0000 C.ar    1  UNL1        0.0247
     36 C           4.6381    1.2153    0.0000 C.ar    1  UNL1        0.1348
     37 C           4.6381    3.2847    0.0000 C.ar    1  UNL1        0.0233
     38 C           8.1301    4.2500    0.0000 C.ar    1  UNL1       -0.0057
     39 C           8.9962    2.7500    0.0000 C.ar    1  UNL1       -0.0473
     40 C           3.7320    1.7292    0.0000 C.ar    1  UNL1        0.0225
     41 C           3.7320    2.7708    0.0000 C.ar    1  UNL1        0.1271
     42 C           8.9962    4.7500    0.0000 C.ar    1  UNL1        0.1589
     43 C           9.8622    3.2500    0.0000 C.ar    1  UNL1       -0.0159
     44 C           9.8622    4.2500    0.0000 C.ar    1  UNL1        0.1583
     45 C           2.0000    2.7775    0.0000 C.3     1  UNL1        0.0788
     46 H           6.7272   -0.9400    0.0000 H       1  UNL1        0.0647
     47 H           8.6671   -2.0600    0.0000 H       1  UNL1        0.0647
     48 H           9.5331   -0.9400    0.0000 H       1  UNL1        0.0648
     49 H           9.5331   -0.5600    0.0000 H       1  UNL1        0.0683
     50 H           5.5320   -4.8700    0.0000 H       1  UNL1        0.0671
     51 H           5.5320   -2.6300    0.0000 H       1  UNL1        0.0937
     52 H           4.1291   -5.0600    0.0000 H       1  UNL1        0.0648
     53 H           3.8000   -4.8700    0.0000 H       1  UNL1        0.0647
     54 H           3.8000   -2.6300    0.0000 H       1  UNL1        0.0647
     55 H           8.6671    0.5600    0.0000 H       1  UNL1        0.1084
     56 H           6.1860   -1.1674    0.0000 H       1  UNL1        0.0587
     57 H           5.7875   -1.8577    0.0000 H       1  UNL1        0.0587
     58 H           2.3234   -2.6423    0.0000 H       1  UNL1        0.0584
     59 H           2.7219   -3.3326    0.0000 H       1  UNL1        0.0584
     60 H           8.6671   -3.0600    0.0000 H       1  UNL1        0.2100
     61 H          10.3991   -1.4400    0.0000 H       1  UNL1        0.2100
     62 H           9.8622    0.8700    0.0000 H       1  UNL1        0.2102
     63 H           6.9350   -4.4400    0.0000 H       1  UNL1        0.2101
     64 H           4.1291   -6.0600    0.0000 H       1  UNL1        0.2100
     65 H           2.3970   -4.4400    0.0000 H       1  UNL1        0.2100
     66 H           2.3970   -1.4400    0.0000 H       1  UNL1        0.2095
     67 H           4.6453    3.9046    0.0000 H       1  UNL1        0.0691
     68 H           7.5932    4.5600    0.0000 H       1  UNL1        0.0662
     69 H           8.9962    2.1300    0.0000 H       1  UNL1        0.0626
     70 H           3.1963    1.4171    0.0000 H       1  UNL1        0.0691
     71 H          10.3991    2.9400    0.0000 H       1  UNL1        0.0655
     72 H           4.1164   -0.1008    0.0000 H       1  UNL1        0.2922
     73 H           8.4592    6.0600    0.0000 H       1  UNL1        0.2923
     74 H           1.6921    3.3156    0.0000 H       1  UNL1        0.0660
     75 H           1.4619    2.4696    0.0000 H       1  UNL1        0.0660
     76 H           2.3079    2.2394    0.0000 H       1  UNL1        0.0660
     77 H          11.2651    4.4400    0.0000 H       1  UNL1        0.2923
@<TRIPOS>BOND
     1     1    18    1
     2     1    27    1
     3     2    23    1
     4     2    26    1
     5    23     3    1
     6     3    28    1
     7    19     4    1
     8     4    60    1
     9     5    20    1
    10     5    61    1
    11    27     6    1
    12     6    30    1
    13     7    21    1
    14     7    62    1
    15     8    22    1
    16     8    63    1
    17    24     9    1
    18     9    64    1
    19    25    10    1
    20    10    65    1
    21    11    29    1
    22    11    66    1
    23    12    31   ar
    24    12    34   ar
    25    13    32    2
    26    14    36    1
    27    14    72    1
    28    15    41    1
    29    15    45    1
    30    16    42    1
    31    16    73    1
    32    17    44    1
    33    17    77    1
    34    18    19    1
    35    18    28    1
    36    18    46    1
    37    19    20    1
    38    19    47    1
    39    20    21    1
    40    20    48    1
    41    21    27    1
    42    21    49    1
    43    22    23    1
    44    22    24    1
    45    22    50    1
    46    23    51    1
    47    24    25    1
    48    24    52    1
    49    25    26    1
    50    25    53    1
    51    26    29    1
    52    26    54    1
    53    27    55    1
    54    28    56    1
    55    28    57    1
    56    29    58    1
    57    29    59    1
    58    30    31   ar
    59    30    32   ar
    60    31    35    1
    61    32    33   ar
    62    33    34   ar
    63    33    36   ar
    64    34    37   ar
    65    35    38   ar
    66    35    39   ar
    67    36    40   ar
    68    37    41   ar
    69    37    67    1
    70    38    42   ar
    71    38    68    1
    72    39    43   ar
    73    39    69    1
    74    40    41   ar
    75    40    70    1
    76    42    44   ar
    77    43    44   ar
    78    43    71    1
    79    45    74    1
    80    45    75    1
    81    45    76    1
