@<TRIPOS>MOLECULE
IMPHY017073
 24 24 0 0 0
SMALL
GASTEIGER

@<TRIPOS>ATOM
      1 C           3.7601    0.0194    0.0000 C.3     1  UNL1       -0.0387
      2 C           2.9511   -0.5684    0.0000 C.3     1  UNL1       -0.0411
      3 C           4.5691   -0.5684    0.0000 C.3     1  UNL1       -0.0500
      4 C           3.2601   -1.5194    0.0000 C.3     1  UNL1       -0.0502
      5 C           4.2601   -1.5194    0.0000 C.3     1  UNL1       -0.0525
      6 C           3.7601    1.0194    0.0000 C.3     1  UNL1       -0.0528
      7 C           2.0000   -0.2593    0.0000 C.3     1  UNL1       -0.0622
      8 C           4.6261    1.5194    0.0000 C.3     1  UNL1       -0.0650
      9 H           4.5174    0.4053    0.0000 H       1  UNL1        0.0303
     10 H           2.3500   -1.1694    0.0000 H       1  UNL1        0.0301
     11 H           5.1355   -0.8205    0.0000 H       1  UNL1        0.0268
     12 H           4.8791   -0.0314    0.0000 H       1  UNL1        0.0268
     13 H           2.6536   -1.6483    0.0000 H       1  UNL1        0.0268
     14 H           3.3249   -2.1360    0.0000 H       1  UNL1        0.0268
     15 H           4.1953   -2.1360    0.0000 H       1  UNL1        0.0265
     16 H           4.8665   -1.6483    0.0000 H       1  UNL1        0.0265
     17 H           3.5480    1.6020    0.0000 H       1  UNL1        0.0265
     18 H           3.1495    0.9118    0.0000 H       1  UNL1        0.0265
     19 H           2.1916    0.3303    0.0000 H       1  UNL1        0.0233
     20 H           1.4103   -0.0678    0.0000 H       1  UNL1        0.0233
     21 H           1.8084   -0.8490    0.0000 H       1  UNL1        0.0233
     22 H           4.9361    0.9825    0.0000 H       1  UNL1        0.0230
     23 H           5.1630    1.8294    0.0000 H       1  UNL1        0.0230
     24 H           4.3161    2.0564    0.0000 H       1  UNL1        0.0230
@<TRIPOS>BOND
     1     1     2    1
     2     1     3    1
     3     1     6    1
     4     1     9    1
     5     2     4    1
     6     2     7    1
     7     2    10    1
     8     3     5    1
     9     3    11    1
    10     3    12    1
    11     4     5    1
    12     4    13    1
    13     4    14    1
    14     5    15    1
    15     5    16    1
    16     6     8    1
    17     6    17    1
    18     6    18    1
    19     7    19    1
    20     7    20    1
    21     7    21    1
    22     8    22    1
    23     8    23    1
    24     8    24    1
