@<TRIPOS>MOLECULE
IMPHY002748
 38 39 0 0 0
SMALL
GASTEIGER

@<TRIPOS>ATOM
      1 O           6.3580   -1.2847    0.0000 O.3     1  UNL1       -0.4815
      2 O           2.8660    1.7500    0.0000 O.3     1  UNL1       -0.3753
      3 O           2.8660   -1.2500    0.0000 O.3     1  UNL1       -0.4946
      4 C           7.2641   -0.7708    0.0000 C.3     1  UNL1        0.1235
      5 C           5.4641    0.2500    0.0000 C.ar    1  UNL1        0.0171
      6 C           5.4641   -0.7500    0.0000 C.ar    1  UNL1        0.1323
      7 C           3.7320    0.2500    0.0000 C.ar    1  UNL1        0.0232
      8 C           7.2641    0.2708    0.0000 C.2     1  UNL1       -0.0409
      9 C           4.5981    0.7500    0.0000 C.ar    1  UNL1       -0.0420
     10 C           6.3580    0.7847    0.0000 C.2     1  UNL1       -0.0513
     11 C           2.8660    0.7500    0.0000 C.3     1  UNL1        0.0839
     12 C           8.2641   -0.7747    0.0000 C.3     1  UNL1       -0.0215
     13 C           7.7608   -1.6388    0.0000 C.3     1  UNL1       -0.0215
     14 C           3.7320   -0.7500    0.0000 C.ar    1  UNL1        0.1292
     15 C           4.5981   -1.2500    0.0000 C.ar    1  UNL1        0.0228
     16 C           2.0000    0.2500    0.0000 C.3     1  UNL1       -0.0344
     17 C           2.0000    2.2500    0.0000 C.3     1  UNL1        0.0372
     18 C           2.8660   -2.2500    0.0000 C.3     1  UNL1        0.0788
     19 H           7.7998    0.5829    0.0000 H       1  UNL1        0.0611
     20 H           4.5981    1.3700    0.0000 H       1  UNL1        0.0629
     21 H           3.4030    1.0600    0.0000 H       1  UNL1        0.0644
     22 H           6.3509    1.4046    0.0000 H       1  UNL1        0.0623
     23 H           7.2226   -1.9467    0.0000 H       1  UNL1        0.0271
     24 H           8.0687   -2.1769    0.0000 H       1  UNL1        0.0271
     25 H           8.2989   -1.3308    0.0000 H       1  UNL1        0.0271
     26 H           8.2617   -1.3947    0.0000 H       1  UNL1        0.0271
     27 H           8.8841   -0.7771    0.0000 H       1  UNL1        0.0271
     28 H           8.2665   -0.1547    0.0000 H       1  UNL1        0.0271
     29 H           4.5981   -1.8700    0.0000 H       1  UNL1        0.0691
     30 H           1.6900    0.7869    0.0000 H       1  UNL1        0.0258
     31 H           1.4631   -0.0600    0.0000 H       1  UNL1        0.0258
     32 H           2.3100   -0.2869    0.0000 H       1  UNL1        0.0258
     33 H           2.3100    2.7869    0.0000 H       1  UNL1        0.0524
     34 H           1.4631    2.5600    0.0000 H       1  UNL1        0.0524
     35 H           1.6900    1.7131    0.0000 H       1  UNL1        0.0524
     36 H           2.2460   -2.2500    0.0000 H       1  UNL1        0.0660
     37 H           2.8660   -2.8700    0.0000 H       1  UNL1        0.0660
     38 H           3.4860   -2.2500    0.0000 H       1  UNL1        0.0660
@<TRIPOS>BOND
     1     1     4    1
     2     1     6    1
     3     2    11    1
     4     2    17    1
     5     3    14    1
     6     3    18    1
     7     4     8    1
     8     4    12    1
     9     4    13    1
    10     5     6   ar
    11     5     9   ar
    12     5    10    1
    13     6    15   ar
    14     7     9   ar
    15     7    11    1
    16     7    14   ar
    17     8    10    2
    18     8    19    1
    19     9    20    1
    20    10    22    1
    21    11    16    1
    22    11    21    1
    23    12    26    1
    24    12    27    1
    25    12    28    1
    26    13    23    1
    27    13    24    1
    28    13    25    1
    29    14    15   ar
    30    15    29    1
    31    16    30    1
    32    16    31    1
    33    16    32    1
    34    17    33    1
    35    17    34    1
    36    17    35    1
    37    18    36    1
    38    18    37    1
    39    18    38    1
