@<TRIPOS>MOLECULE
IMPHY017834
 37 39 0 0 0
SMALL
GASTEIGER

@<TRIPOS>ATOM
      1 O           3.4755    2.0513    0.0000 O.2     1  UNL1       -0.2963
      2 O           2.0000    0.0122    0.0000 O.2     1  UNL1       -0.2913
      3 C           4.5633   -0.2966    0.0000 C.3     1  UNL1        0.0147
      4 C           5.3723    0.2912    0.0000 C.3     1  UNL1       -0.0211
      5 C           3.7543    0.2912    0.0000 C.3     1  UNL1        0.0978
      6 C           4.8730   -1.2412    0.0000 C.3     1  UNL1       -0.0418
      7 C           6.1750   -0.2952    0.0000 C.3     1  UNL1       -0.0398
      8 C           5.0633    1.2422    0.0000 C.3     1  UNL1        0.0108
      9 C           5.8670   -1.2404    0.0000 C.3     1  UNL1       -0.0493
     10 C           4.2537   -1.2412    0.0000 C.2     1  UNL1       -0.0586
     11 C           4.0633    1.2422    0.0000 C.2     1  UNL1        0.1478
     12 C           2.9516   -0.2952    0.0000 C.2     1  UNL1        0.1727
     13 C           3.2596   -1.2404    0.0000 C.2     1  UNL1       -0.0075
     14 C           2.9453    0.8790    0.0000 C.3     1  UNL1       -0.0448
     15 C           7.1266    0.0122    0.0000 C.3     1  UNL1       -0.0621
     16 C           4.8401   -2.0513    0.0000 C.3     1  UNL1       -0.0426
     17 C           2.6718   -2.0494    0.0000 C.3     1  UNL1       -0.0364
     18 H           6.0606    0.7899    0.0000 H       1  UNL1        0.0316
     19 H           4.2668   -1.3714    0.0000 H       1  UNL1        0.0274
     20 H           4.9386   -1.8577    0.0000 H       1  UNL1        0.0274
     21 H           6.6129   -0.7342    0.0000 H       1  UNL1        0.0301
     22 H           5.6698    1.3712    0.0000 H       1  UNL1        0.0345
     23 H           4.9985    1.8588    0.0000 H       1  UNL1        0.0345
     24 H           5.8024   -1.8570    0.0000 H       1  UNL1        0.0268
     25 H           6.4734   -1.3694    0.0000 H       1  UNL1        0.0268
     26 H           3.3097    1.3806    0.0000 H       1  UNL1        0.0244
     27 H           2.4437    1.2434    0.0000 H       1  UNL1        0.0244
     28 H           2.5808    0.3774    0.0000 H       1  UNL1        0.0244
     29 H           7.3172   -0.5778    0.0000 H       1  UNL1        0.0233
     30 H           7.7166    0.2027    0.0000 H       1  UNL1        0.0233
     31 H           6.9361    0.6022    0.0000 H       1  UNL1        0.0233
     32 H           4.3378   -2.4148    0.0000 H       1  UNL1        0.0275
     33 H           5.2036   -2.5535    0.0000 H       1  UNL1        0.0275
     34 H           5.3423   -1.6877    0.0000 H       1  UNL1        0.0275
     35 H           2.1702   -1.6850    0.0000 H       1  UNL1        0.0279
     36 H           2.3074   -2.5510    0.0000 H       1  UNL1        0.0279
     37 H           3.1734   -2.4138    0.0000 H       1  UNL1        0.0279
@<TRIPOS>BOND
     1     1    11    2
     2     2    12    2
     3     3     4    1
     4     3     5    1
     5     3     6    1
     6     3    10    1
     7     4     7    1
     8     4     8    1
     9     4    18    1
    10     5    11    1
    11     5    12    1
    12     5    14    1
    13     6     9    1
    14     6    19    1
    15     6    20    1
    16     7     9    1
    17     7    15    1
    18     7    21    1
    19     8    11    1
    20     8    22    1
    21     8    23    1
    22     9    24    1
    23     9    25    1
    24    10    13    2
    25    10    16    1
    26    12    13    1
    27    13    17    1
    28    14    26    1
    29    14    27    1
    30    14    28    1
    31    15    29    1
    32    15    30    1
    33    15    31    1
    34    16    32    1
    35    16    33    1
    36    16    34    1
    37    17    35    1
    38    17    36    1
    39    17    37    1
