@<TRIPOS>MOLECULE
IMPHY007649
 72 74 0 0 0
SMALL
GASTEIGER

@<TRIPOS>ATOM
      1 O           6.7303    3.8903    0.0000 O.3     1  UNL1       -0.3882
      2 O           4.8576   -1.0985    0.0000 O.3     1  UNL1       -0.4907
      3 O           5.4506   -1.3441    0.0000 O.3     1  UNL1       -0.4181
      4 O           2.3791    1.1246    0.0000 O.3     1  UNL1       -0.4913
      5 O           8.7752   -1.5247    0.0000 O.3     1  UNL1       -0.4913
      6 O           3.1630   -0.7677    0.0000 O.3     1  UNL1       -0.4885
      7 O           7.2299   -2.2947    0.0000 O.3     1  UNL1       -0.4885
      8 O           6.4422   -2.9408    0.0000 O.2     1  UNL1       -0.2449
      9 C           6.3476    2.9665    0.0000 C.3     1  UNL1        0.0701
     10 C           7.2714    2.5838    0.0000 C.3     1  UNL1       -0.0109
     11 C           5.4237    2.5838    0.0000 C.3     1  UNL1        0.0021
     12 C           7.6541    1.6599    0.0000 C.3     1  UNL1       -0.0217
     13 C           5.0410    1.6599    0.0000 C.ar    1  UNL1       -0.0296
     14 C           7.2714    0.7360    0.0000 C.ar    1  UNL1       -0.0320
     15 C           5.9649    3.8903    0.0000 C.3     1  UNL1       -0.0355
     16 C           7.9786    3.2909    0.0000 C.3     1  UNL1       -0.0595
     17 C           5.4237    0.7360    0.0000 C.ar    1  UNL1        0.0348
     18 C           6.3476    0.3533    0.0000 C.ar    1  UNL1        0.0355
     19 C           4.0105    1.8118    0.0000 C.ar    1  UNL1       -0.0122
     20 C           8.1075    0.1147    0.0000 C.ar    1  UNL1       -0.0123
     21 C           4.8024   -0.1000    0.0000 C.ar    1  UNL1        0.1732
     22 C           6.1957   -0.6772    0.0000 C.ar    1  UNL1        0.1850
     23 C           3.3700    0.9903    0.0000 C.ar    1  UNL1        0.1655
     24 C           7.9795   -0.9190    0.0000 C.ar    1  UNL1        0.1655
     25 C           3.7687    0.0280    0.0000 C.ar    1  UNL1        0.2041
     26 C           7.0172   -1.3176    0.0000 C.ar    1  UNL1        0.2049
     27 C           4.0205   -1.6456    0.0000 C.3     1  UNL1        0.0790
     28 C           5.6558   -2.3229    0.0000 C.2     1  UNL1        0.3399
     29 C           2.0000    2.0500    0.0000 C.3     1  UNL1        0.0790
     30 C           9.6976   -1.1385    0.0000 C.3     1  UNL1        0.0790
     31 C           2.1710   -0.6410    0.0000 C.3     1  UNL1        0.0791
     32 C           8.1824   -2.5991    0.0000 C.3     1  UNL1        0.0791
     33 C           4.9108   -2.9899    0.0000 C.2     1  UNL1        0.0298
     34 C           3.9606   -2.6782    0.0000 C.3     1  UNL1       -0.0332
     35 C           5.1159   -3.9687    0.0000 C.2     1  UNL1       -0.0774
     36 C           6.0661   -4.2804    0.0000 C.3     1  UNL1       -0.0461
     37 H           7.8795    2.4628    0.0000 H       1  UNL1        0.0329
     38 H           5.3428    3.1985    0.0000 H       1  UNL1        0.0341
     39 H           4.8090    2.6647    0.0000 H       1  UNL1        0.0341
     40 H           8.1460    1.2825    0.0000 H       1  UNL1        0.0317
     41 H           8.1460    2.0373    0.0000 H       1  UNL1        0.0317
     42 H           6.5377    4.1276    0.0000 H       1  UNL1        0.0257
     43 H           5.7276    4.4632    0.0000 H       1  UNL1        0.0257
     44 H           5.3921    3.6531    0.0000 H       1  UNL1        0.0257
     45 H           8.4170    2.8525    0.0000 H       1  UNL1        0.0233
     46 H           8.4170    3.7293    0.0000 H       1  UNL1        0.0233
     47 H           7.5402    3.7293    0.0000 H       1  UNL1        0.0233
     48 H           6.3528    4.3822    0.0000 H       1  UNL1        0.2102
     49 H           3.7799    2.3873    0.0000 H       1  UNL1        0.0658
     50 H           8.6775    0.3586    0.0000 H       1  UNL1        0.0658
     51 H           3.6813   -1.1266    0.0000 H       1  UNL1        0.0660
     52 H           3.5015   -1.9848    0.0000 H       1  UNL1        0.0660
     53 H           4.3597   -2.1646    0.0000 H       1  UNL1        0.0660
     54 H           2.5737    2.2850    0.0000 H       1  UNL1        0.0660
     55 H           1.7650    2.6237    0.0000 H       1  UNL1        0.0660
     56 H           1.4263    1.8149    0.0000 H       1  UNL1        0.0660
     57 H           9.9371   -1.7104    0.0000 H       1  UNL1        0.0660
     58 H          10.2695   -0.8990    0.0000 H       1  UNL1        0.0660
     59 H           9.4581   -0.5666    0.0000 H       1  UNL1        0.0660
     60 H           2.2496   -0.0260    0.0000 H       1  UNL1        0.0660
     61 H           1.5560   -0.5625    0.0000 H       1  UNL1        0.0660
     62 H           2.0925   -1.2560    0.0000 H       1  UNL1        0.0660
     63 H           7.9937   -3.1897    0.0000 H       1  UNL1        0.0660
     64 H           8.7730   -2.7879    0.0000 H       1  UNL1        0.0660
     65 H           8.3711   -2.0086    0.0000 H       1  UNL1        0.0660
     66 H           4.1538   -2.0891    0.0000 H       1  UNL1        0.0280
     67 H           3.3714   -2.4849    0.0000 H       1  UNL1        0.0280
     68 H           3.7673   -3.2673    0.0000 H       1  UNL1        0.0280
     69 H           4.6540   -4.3822    0.0000 H       1  UNL1        0.0574
     70 H           5.8729   -4.8695    0.0000 H       1  UNL1        0.0272
     71 H           6.6552   -4.4736    0.0000 H       1  UNL1        0.0272
     72 H           6.2594   -3.6913    0.0000 H       1  UNL1        0.0272
@<TRIPOS>BOND
     1     9     1    1
     2     1    48    1
     3     2    21    1
     4     2    27    1
     5     3    22    1
     6     3    28    1
     7     4    23    1
     8     4    29    1
     9     5    24    1
    10     5    30    1
    11     6    25    1
    12     6    31    1
    13     7    26    1
    14     7    32    1
    15     8    28    2
    16     9    10    1
    17     9    11    1
    18     9    15    1
    19    10    12    1
    20    10    16    1
    21    10    37    1
    22    11    13    1
    23    11    38    1
    24    11    39    1
    25    12    14    1
    26    12    40    1
    27    12    41    1
    28    13    17   ar
    29    13    19   ar
    30    14    18   ar
    31    14    20   ar
    32    15    42    1
    33    15    43    1
    34    15    44    1
    35    16    45    1
    36    16    46    1
    37    16    47    1
    38    17    18    1
    39    17    21   ar
    40    18    22   ar
    41    19    23   ar
    42    19    49    1
    43    20    24   ar
    44    20    50    1
    45    21    25   ar
    46    22    26   ar
    47    23    25   ar
    48    24    26   ar
    49    27    51    1
    50    27    52    1
    51    27    53    1
    52    28    33    1
    53    29    54    1
    54    29    55    1
    55    29    56    1
    56    30    57    1
    57    30    58    1
    58    30    59    1
    59    31    60    1
    60    31    61    1
    61    31    62    1
    62    32    63    1
    63    32    64    1
    64    32    65    1
    65    33    34    1
    66    33    35    2
    67    34    66    1
    68    34    67    1
    69    34    68    1
    70    35    36    1
    71    35    69    1
    72    36    70    1
    73    36    71    1
    74    36    72    1
