@<TRIPOS>MOLECULE
IMPHY004348
 39 40 0 0 0
SMALL
GASTEIGER

@<TRIPOS>ATOM
      1 O           8.1240   -1.6469    0.0000 O.3     1  UNL1       -0.3861
      2 O           8.1240    1.8636    0.0000 O.2     1  UNL1       -0.2913
      3 O          10.1195   -0.0727    0.0000 O.3     1  UNL1       -0.3939
      4 O           2.5369    1.1084    0.0000 O.3     1  UNL1       -0.3947
      5 C           8.3969    0.1084    0.0000 C.3     1  UNL1        0.0836
      6 C           7.8133   -0.6964    0.0000 C.3     1  UNL1        0.0953
      7 C           6.8671   -0.3916    0.0000 C.ar    1  UNL1       -0.0071
      8 C           6.8671    0.6084    0.0000 C.ar    1  UNL1        0.0270
      9 C           7.8133    0.9131    0.0000 C.2     1  UNL1        0.1746
     10 C           9.2059   -0.4794    0.0000 C.3     1  UNL1        0.0593
     11 C           9.2059    0.6961    0.0000 C.3     1  UNL1       -0.0476
     12 C           6.0010    1.1084    0.0000 C.ar    1  UNL1       -0.0361
     13 C           6.0010   -0.8916    0.0000 C.ar    1  UNL1       -0.0522
     14 C           5.1350    0.6084    0.0000 C.ar    1  UNL1       -0.0387
     15 C           5.1350   -0.3916    0.0000 C.ar    1  UNL1       -0.0466
     16 C           4.2690    1.1084    0.0000 C.3     1  UNL1       -0.0039
     17 C           6.0010    2.1084    0.0000 C.3     1  UNL1       -0.0388
     18 C           4.2690   -0.8916    0.0000 C.3     1  UNL1       -0.0394
     19 C           3.4030    0.6084    0.0000 C.3     1  UNL1        0.0482
     20 H           7.3758   -1.1357    0.0000 H       1  UNL1        0.0654
     21 H           8.7599   -0.9101    0.0000 H       1  UNL1        0.0568
     22 H           9.5526   -0.9934    0.0000 H       1  UNL1        0.0568
     23 H           9.5703    0.1946    0.0000 H       1  UNL1        0.0241
     24 H           9.7075    1.0606    0.0000 H       1  UNL1        0.0241
     25 H           8.8415    1.1977    0.0000 H       1  UNL1        0.0241
     26 H           6.0010   -1.5116    0.0000 H       1  UNL1        0.0624
     27 H           7.7099   -2.1084    0.0000 H       1  UNL1        0.2103
     28 H           4.6675    1.5833    0.0000 H       1  UNL1        0.0335
     29 H           3.8705    1.5833    0.0000 H       1  UNL1        0.0335
     30 H           6.6210    2.1084    0.0000 H       1  UNL1        0.0278
     31 H           6.0010    2.7284    0.0000 H       1  UNL1        0.0278
     32 H           5.3810    2.1084    0.0000 H       1  UNL1        0.0278
     33 H           3.9590   -0.3547    0.0000 H       1  UNL1        0.0278
     34 H           3.7320   -1.2016    0.0000 H       1  UNL1        0.0278
     35 H           4.5790   -1.4286    0.0000 H       1  UNL1        0.0278
     36 H          10.6210   -0.4371    0.0000 H       1  UNL1        0.2094
     37 H           3.0044    0.1334    0.0000 H       1  UNL1        0.0560
     38 H           3.8015    0.1334    0.0000 H       1  UNL1        0.0560
     39 H           2.0000    0.7984    0.0000 H       1  UNL1        0.2094
@<TRIPOS>BOND
     1     1     6    1
     2     1    27    1
     3     2     9    2
     4     3    10    1
     5     3    36    1
     6     4    19    1
     7     4    39    1
     8     5     6    1
     9     5     9    1
    10     5    10    1
    11     5    11    1
    12     6     7    1
    13     6    20    1
    14     7     8   ar
    15     7    13   ar
    16     8     9    1
    17     8    12   ar
    18    10    21    1
    19    10    22    1
    20    11    23    1
    21    11    24    1
    22    11    25    1
    23    12    14   ar
    24    12    17    1
    25    13    15   ar
    26    13    26    1
    27    14    15   ar
    28    14    16    1
    29    15    18    1
    30    16    19    1
    31    16    28    1
    32    16    29    1
    33    17    30    1
    34    17    31    1
    35    17    32    1
    36    18    33    1
    37    18    34    1
    38    18    35    1
    39    19    37    1
    40    19    38    1
