@<TRIPOS>MOLECULE
IMPHY015474
 115 122 0 0 0
SMALL
GASTEIGER

@<TRIPOS>ATOM
      1 O          12.8895    1.4069    0.0000 O.3     1  UNL1       -0.3447
      2 O          12.7476   -0.5735    0.0000 O.3     1  UNL1       -0.3479
      3 O           6.8671    1.2729    0.0000 O.3     1  UNL1       -0.3445
      4 O           5.0839    4.4172    0.0000 O.3     1  UNL1       -0.3914
      5 O          15.5103    0.5960    0.0000 O.3     1  UNL1       -0.3913
      6 O           5.1350    1.2729    0.0000 O.3     1  UNL1       -0.3405
      7 O           6.8671   -0.7271    0.0000 O.3     1  UNL1       -0.3378
      8 O           5.1350   -1.7271    0.0000 O.3     1  UNL1       -0.3864
      9 O           3.4030   -0.7271    0.0000 O.3     1  UNL1       -0.3865
     10 O           6.0010   -2.2271    0.0000 O.3     1  UNL1       -0.3431
     11 O           2.5369    0.7729    0.0000 O.3     1  UNL1       -0.3924
     12 O           8.5991   -1.7271    0.0000 O.3     1  UNL1       -0.3841
     13 O           8.5991   -3.7271    0.0000 O.3     1  UNL1       -0.3864
     14 O           6.8671   -4.7271    0.0000 O.3     1  UNL1       -0.3866
     15 C          10.4171    1.2615    0.0000 C.3     1  UNL1       -0.0233
     16 C          10.4364    2.2613    0.0000 C.3     1  UNL1       -0.0295
     17 C          11.3573    0.9386    0.0000 C.3     1  UNL1       -0.0015
     18 C           9.5802    2.7779    0.0000 C.3     1  UNL1       -0.0305
     19 C          11.9563    1.7319    0.0000 C.3     1  UNL1        0.0660
     20 C           8.7047    2.2947    0.0000 C.3     1  UNL1       -0.0262
     21 C          11.3883    2.5478    0.0000 C.3     1  UNL1       -0.0226
     22 C           9.5416    0.7783    0.0000 C.3     1  UNL1       -0.0467
     23 C          11.9254    0.1300    0.0000 C.3     1  UNL1        0.0161
     24 C           8.6854    1.2949    0.0000 C.3     1  UNL1       -0.0486
     25 C           7.8046    2.8190    0.0000 C.3     1  UNL1        0.0184
     26 C          12.8705    0.4189    0.0000 C.3     1  UNL1        0.1755
     27 C          10.3978    0.2617    0.0000 C.3     1  UNL1       -0.0590
     28 C           9.6163    3.8189    0.0000 C.3     1  UNL1       -0.0311
     29 C           7.8166    3.8606    0.0000 C.2     1  UNL1       -0.0624
     30 C           6.8671    2.2729    0.0000 C.3     1  UNL1        0.0734
     31 C          13.7913    0.8087    0.0000 C.3     1  UNL1        0.0281
     32 C          11.6006   -0.8157    0.0000 C.3     1  UNL1       -0.0572
     33 C           8.7286    4.3639    0.0000 C.2     1  UNL1       -0.0838
     34 C           7.7930    1.8190    0.0000 C.3     1  UNL1       -0.0532
     35 C           6.8920    4.4282    0.0000 C.3     1  UNL1       -0.0049
     36 C           5.9295    2.8190    0.0000 C.3     1  UNL1        0.0007
     37 C           5.9421    3.9039    0.0000 C.3     1  UNL1        0.0613
     38 C          14.5894    0.2062    0.0000 C.3     1  UNL1        0.0648
     39 C          14.4666   -0.7863    0.0000 C.3     1  UNL1        0.0059
     40 C          13.5457   -1.1761    0.0000 C.3     1  UNL1        0.0558
     41 C           6.0010    0.7729    0.0000 C.3     1  UNL1        0.1886
     42 C          15.2646   -1.3888    0.0000 C.3     1  UNL1       -0.0580
     43 C           6.0010   -0.2271    0.0000 C.3     1  UNL1        0.1406
     44 C           5.1350   -0.7271    0.0000 C.3     1  UNL1        0.1144
     45 C           4.2690    0.7729    0.0000 C.3     1  UNL1        0.1130
     46 C           4.2690   -0.2271    0.0000 C.3     1  UNL1        0.1119
     47 C           3.4030    1.2729    0.0000 C.3     1  UNL1        0.0730
     48 C           6.8671   -1.7271    0.0000 C.3     1  UNL1        0.1884
     49 C           7.7331   -2.2271    0.0000 C.3     1  UNL1        0.1341
     50 C           7.7331   -3.2271    0.0000 C.3     1  UNL1        0.1140
     51 C           6.0010   -3.2271    0.0000 C.3     1  UNL1        0.0873
     52 C           6.8671   -3.7271    0.0000 C.3     1  UNL1        0.1095
     53 C           5.1350   -3.7271    0.0000 C.3     1  UNL1       -0.0361
     54 H          10.5139    2.8765    0.0000 H       1  UNL1        0.0310
     55 H          10.9848    0.4430    0.0000 H       1  UNL1        0.0335
     56 H          10.1253    3.0733    0.0000 H       1  UNL1        0.0310
     57 H          12.3310    2.2259    0.0000 H       1  UNL1        0.0600
     58 H           9.2355    1.9744    0.0000 H       1  UNL1        0.0313
     59 H          11.9316    2.8466    0.0000 H       1  UNL1        0.0293
     60 H          11.1482    3.1194    0.0000 H       1  UNL1        0.0293
     61 H           9.1340    0.3111    0.0000 H       1  UNL1        0.0271
     62 H           9.9309    0.2957    0.0000 H       1  UNL1        0.0271
     63 H          12.3563   -0.3158    0.0000 H       1  UNL1        0.0354
     64 H           8.0770    1.4143    0.0000 H       1  UNL1        0.0268
     65 H           8.4622    0.7165    0.0000 H       1  UNL1        0.0268
     66 H           9.7780    0.2736    0.0000 H       1  UNL1        0.0235
     67 H          10.3859   -0.3582    0.0000 H       1  UNL1        0.0235
     68 H          11.0177    0.2497    0.0000 H       1  UNL1        0.0235
     69 H          10.2231    3.6917    0.0000 H       1  UNL1        0.0310
     70 H           9.8455    4.3950    0.0000 H       1  UNL1        0.0310
     71 H           7.4046    1.9639    0.0000 H       1  UNL1        0.0606
     72 H          14.2452    1.2311    0.0000 H       1  UNL1        0.0342
     73 H          13.4542    1.3290    0.0000 H       1  UNL1        0.0342
     74 H          11.0142   -0.6143    0.0000 H       1  UNL1        0.0234
     75 H          11.3992   -1.4021    0.0000 H       1  UNL1        0.0234
     76 H          12.1870   -1.0171    0.0000 H       1  UNL1        0.0234
     77 H           8.7429    4.9837    0.0000 H       1  UNL1        0.0572
     78 H           7.1731    1.8262    0.0000 H       1  UNL1        0.0239
     79 H           7.7859    1.1991    0.0000 H       1  UNL1        0.0239
     80 H           8.4130    1.8119    0.0000 H       1  UNL1        0.0239
     81 H           7.3020    4.8933    0.0000 H       1  UNL1        0.0335
     82 H           6.5039    4.9117    0.0000 H       1  UNL1        0.0335
     83 H           5.3199    2.9321    0.0000 H       1  UNL1        0.0315
     84 H           5.7137    2.2378    0.0000 H       1  UNL1        0.0315
     85 H           5.4010    3.6012    0.0000 H       1  UNL1        0.0597
     86 H          15.0842   -0.1674    0.0000 H       1  UNL1        0.0598
     87 H          14.3904   -1.4016    0.0000 H       1  UNL1        0.0345
     88 H          13.0919   -1.5985    0.0000 H       1  UNL1        0.0564
     89 H          13.8829   -1.6964    0.0000 H       1  UNL1        0.0564
     90 H           6.0010    1.3929    0.0000 H       1  UNL1        0.0938
     91 H          14.8911   -1.8836    0.0000 H       1  UNL1        0.0234
     92 H          15.7594   -1.7624    0.0000 H       1  UNL1        0.0234
     93 H          15.6382   -0.8941    0.0000 H       1  UNL1        0.0234
     94 H           5.0934    5.0371    0.0000 H       1  UNL1        0.2098
     95 H          16.0051    0.2224    0.0000 H       1  UNL1        0.2098
     96 H           6.0010   -0.8471    0.0000 H       1  UNL1        0.0675
     97 H           4.5981   -1.0371    0.0000 H       1  UNL1        0.0648
     98 H           4.2690    1.3929    0.0000 H       1  UNL1        0.0647
     99 H           4.2690   -0.8471    0.0000 H       1  UNL1        0.0647
    100 H           3.8015    1.7478    0.0000 H       1  UNL1        0.0584
    101 H           3.0044    1.7478    0.0000 H       1  UNL1        0.0584
    102 H           7.4040   -1.4171    0.0000 H       1  UNL1        0.0938
    103 H           4.5981   -2.0371    0.0000 H       1  UNL1        0.2100
    104 H           3.4030   -1.3471    0.0000 H       1  UNL1        0.2100
    105 H           8.2700   -2.5371    0.0000 H       1  UNL1        0.0671
    106 H           7.7331   -3.8471    0.0000 H       1  UNL1        0.0648
    107 H           2.0000    1.0829    0.0000 H       1  UNL1        0.2095
    108 H           5.4641   -2.9171    0.0000 H       1  UNL1        0.0621
    109 H           7.4040   -4.0371    0.0000 H       1  UNL1        0.0646
    110 H           9.1360   -2.0371    0.0000 H       1  UNL1        0.2101
    111 H           4.8250   -3.1902    0.0000 H       1  UNL1        0.0255
    112 H           4.5981   -4.0371    0.0000 H       1  UNL1        0.0255
    113 H           5.4450   -4.2641    0.0000 H       1  UNL1        0.0255
    114 H           8.5991   -4.3471    0.0000 H       1  UNL1        0.2100
    115 H           6.3301   -5.0371    0.0000 H       1  UNL1        0.2100
@<TRIPOS>BOND
     1     1    19    1
     2     1    26    1
     3     2    26    1
     4     2    40    1
     5     3    30    1
     6     3    41    1
     7     4    37    1
     8     4    94    1
     9     5    38    1
    10     5    95    1
    11     6    41    1
    12     6    45    1
    13     7    43    1
    14     7    48    1
    15     8    44    1
    16     8   103    1
    17     9    46    1
    18     9   104    1
    19    10    48    1
    20    10    51    1
    21    11    47    1
    22    11   107    1
    23    12    49    1
    24    12   110    1
    25    13    50    1
    26    13   114    1
    27    14    52    1
    28    14   115    1
    29    15    16    1
    30    15    17    1
    31    15    22    1
    32    15    27    1
    33    16    18    1
    34    16    21    1
    35    16    54    1
    36    17    19    1
    37    17    23    1
    38    17    55    1
    39    18    20    1
    40    18    28    1
    41    18    56    1
    42    19    21    1
    43    19    57    1
    44    20    24    1
    45    20    25    1
    46    20    58    1
    47    21    59    1
    48    21    60    1
    49    22    24    1
    50    22    61    1
    51    22    62    1
    52    23    26    1
    53    23    32    1
    54    23    63    1
    55    24    64    1
    56    24    65    1
    57    25    29    1
    58    25    30    1
    59    25    34    1
    60    26    31    1
    61    27    66    1
    62    27    67    1
    63    27    68    1
    64    28    33    1
    65    28    69    1
    66    28    70    1
    67    29    33    2
    68    29    35    1
    69    30    36    1
    70    30    71    1
    71    31    38    1
    72    31    72    1
    73    31    73    1
    74    32    74    1
    75    32    75    1
    76    32    76    1
    77    33    77    1
    78    34    78    1
    79    34    79    1
    80    34    80    1
    81    35    37    1
    82    35    81    1
    83    35    82    1
    84    36    37    1
    85    36    83    1
    86    36    84    1
    87    37    85    1
    88    38    39    1
    89    38    86    1
    90    39    40    1
    91    39    42    1
    92    39    87    1
    93    40    88    1
    94    40    89    1
    95    41    43    1
    96    41    90    1
    97    42    91    1
    98    42    92    1
    99    42    93    1
   100    43    44    1
   101    43    96    1
   102    44    46    1
   103    44    97    1
   104    45    46    1
   105    45    47    1
   106    45    98    1
   107    46    99    1
   108    47   100    1
   109    47   101    1
   110    48    49    1
   111    48   102    1
   112    49    50    1
   113    49   105    1
   114    50    52    1
   115    50   106    1
   116    51    52    1
   117    51    53    1
   118    51   108    1
   119    52   109    1
   120    53   111    1
   121    53   112    1
   122    53   113    1
