@<TRIPOS>MOLECULE
IMPHY010198
 81 85 0 0 0
SMALL
GASTEIGER

@<TRIPOS>ATOM
      1 O          11.3108   -1.7219    0.0000 O.3     1  UNL1       -0.3904
      2 O          10.9767    0.2706    0.0000 O.3     1  UNL1       -0.4803
      3 O           2.5393    0.3200    0.0000 O.3     1  UNL1       -0.4802
      4 O           9.3263    0.7960    0.0000 O.2     1  UNL1       -0.2506
      5 O           3.3938   -1.1867    0.0000 O.2     1  UNL1       -0.2504
      6 C           6.9373   -1.2142    0.0000 C.3     1  UNL1       -0.0230
      7 C           6.0713   -0.7142    0.0000 C.3     1  UNL1       -0.0232
      8 C           7.8034   -0.7142    0.0000 C.3     1  UNL1       -0.0286
      9 C           8.7134   -1.2210    0.0000 C.3     1  UNL1       -0.0100
     10 C           6.0713    0.2858    0.0000 C.3     1  UNL1       -0.0307
     11 C           8.7214   -2.2626    0.0000 C.3     1  UNL1       -0.0270
     12 C           5.1774    0.8205    0.0000 C.3     1  UNL1       -0.0154
     13 C           6.9213   -2.2557    0.0000 C.3     1  UNL1       -0.0466
     14 C           7.8034    0.2858    0.0000 C.3     1  UNL1       -0.0489
     15 C           9.7094   -2.5725    0.0000 C.3     1  UNL1       -0.0048
     16 C           9.6965   -0.8960    0.0000 C.3     1  UNL1        0.0885
     17 C           4.2713    0.3066    0.0000 C.3     1  UNL1        0.0712
     18 C           6.9373    0.7858    0.0000 C.3     1  UNL1       -0.0491
     19 C           7.8193   -2.7835    0.0000 C.3     1  UNL1       -0.0486
     20 C           5.1774   -1.2489    0.0000 C.3     1  UNL1       -0.0458
     21 C          10.3109   -1.7296    0.0000 C.3     1  UNL1        0.0740
     22 C           4.2713   -0.7350    0.0000 C.3     1  UNL1       -0.0364
     23 C           6.2945   -1.9802    0.0000 C.3     1  UNL1       -0.0588
     24 C           4.9673    1.8344    0.0000 C.3     1  UNL1       -0.0163
     25 C           5.7294   -1.6539    0.0000 C.3     1  UNL1       -0.0588
     26 C           8.7057   -0.2211    0.0000 C.3     1  UNL1       -0.0582
     27 C           3.5090    1.0074    0.0000 C.3     1  UNL1       -0.0364
     28 C           3.9382    1.9497    0.0000 C.3     1  UNL1       -0.0452
     29 C          10.5240   -3.1526    0.0000 C.3     1  UNL1       -0.0572
     30 C           9.4094   -3.5264    0.0000 C.3     1  UNL1       -0.0572
     31 C           9.9998    0.0568    0.0000 C.2     1  UNL1        0.3109
     32 C           3.4014   -0.1867    0.0000 C.2     1  UNL1        0.3112
     33 C           5.6408    2.5735    0.0000 C.2     1  UNL1       -0.0763
     34 C           5.3375    3.5264    0.0000 C.3     1  UNL1       -0.0438
     35 C           6.6177    2.3598    0.0000 C.2     1  UNL1       -0.0994
     36 H           8.5362   -0.2835    0.0000 H       1  UNL1        0.0312
     37 H           6.8074   -0.1392    0.0000 H       1  UNL1        0.0309
     38 H           8.8146   -3.1075    0.0000 H       1  UNL1        0.0312
     39 H           5.8701    1.3130    0.0000 H       1  UNL1        0.0320
     40 H           6.3121   -2.1402    0.0000 H       1  UNL1        0.0271
     41 H           6.7032   -2.8361    0.0000 H       1  UNL1        0.0271
     42 H           8.4140    0.1781    0.0000 H       1  UNL1        0.0268
     43 H           8.0154    0.8684    0.0000 H       1  UNL1        0.0268
     44 H          10.3082   -0.7951    0.0000 H       1  UNL1        0.0445
     45 H           7.3359    1.2607    0.0000 H       1  UNL1        0.0268
     46 H           6.5388    1.2607    0.0000 H       1  UNL1        0.0268
     47 H           7.4184   -3.2564    0.0000 H       1  UNL1        0.0268
     48 H           8.2166   -3.2594    0.0000 H       1  UNL1        0.0268
     49 H           4.7838   -1.7279    0.0000 H       1  UNL1        0.0271
     50 H           5.5820   -1.7187    0.0000 H       1  UNL1        0.0271
     51 H          10.5968   -2.2797    0.0000 H       1  UNL1        0.0607
     52 H           3.6604   -0.6289    0.0000 H       1  UNL1        0.0276
     53 H           4.0622   -1.3187    0.0000 H       1  UNL1        0.0276
     54 H           5.8196   -1.5817    0.0000 H       1  UNL1        0.0235
     55 H           5.8960   -2.4552    0.0000 H       1  UNL1        0.0235
     56 H           6.7695   -2.3788    0.0000 H       1  UNL1        0.0235
     57 H           5.5652    1.6706    0.0000 H       1  UNL1        0.0348
     58 H           5.1468   -1.4419    0.0000 H       1  UNL1        0.0235
     59 H           5.5174   -2.2366    0.0000 H       1  UNL1        0.0235
     60 H           6.3120   -1.8659    0.0000 H       1  UNL1        0.0235
     61 H           9.3256   -0.2163    0.0000 H       1  UNL1        0.0235
     62 H           8.7009    0.3989    0.0000 H       1  UNL1        0.0235
     63 H           8.0857   -0.2259    0.0000 H       1  UNL1        0.0235
     64 H           2.9749    1.3223    0.0000 H       1  UNL1        0.0276
     65 H           3.1397    0.5093    0.0000 H       1  UNL1        0.0276
     66 H           4.0716    2.5551    0.0000 H       1  UNL1        0.0271
     67 H           3.3501    2.1460    0.0000 H       1  UNL1        0.0271
     68 H          10.1643   -3.6576    0.0000 H       1  UNL1        0.0236
     69 H          11.0290   -3.5123    0.0000 H       1  UNL1        0.0236
     70 H          10.8836   -2.6476    0.0000 H       1  UNL1        0.0236
     71 H           8.8180   -3.3404    0.0000 H       1  UNL1        0.0236
     72 H           9.2234   -4.1178    0.0000 H       1  UNL1        0.0236
     73 H          10.0008   -3.7124    0.0000 H       1  UNL1        0.0236
     74 H          11.6250   -2.2564    0.0000 H       1  UNL1        0.2098
     75 H           5.9283    3.7145    0.0000 H       1  UNL1        0.0274
     76 H           5.1494    4.1172    0.0000 H       1  UNL1        0.0274
     77 H           4.7467    3.3383    0.0000 H       1  UNL1        0.0274
     78 H          11.1648    0.8614    0.0000 H       1  UNL1        0.2951
     79 H           2.0000    0.0141    0.0000 H       1  UNL1        0.2951
     80 H           6.8058    1.7690    0.0000 H       1  UNL1        0.0534
     81 H           7.0353    2.8180    0.0000 H       1  UNL1        0.0534
@<TRIPOS>BOND
     1    21     1    1
     2     1    74    1
     3     2    31    1
     4     2    78    1
     5     3    32    1
     6     3    79    1
     7     4    31    2
     8     5    32    2
     9     6     7    1
    10     6     8    1
    11     6    13    1
    12     6    23    1
    13     7    10    1
    14     7    20    1
    15     7    25    1
    16     8     9    1
    17     8    14    1
    18     8    36    1
    19     9    11    1
    20     9    16    1
    21     9    26    1
    22    10    12    1
    23    10    18    1
    24    10    37    1
    25    11    15    1
    26    11    19    1
    27    11    38    1
    28    12    17    1
    29    12    24    1
    30    12    39    1
    31    13    19    1
    32    13    40    1
    33    13    41    1
    34    14    18    1
    35    14    42    1
    36    14    43    1
    37    15    21    1
    38    15    29    1
    39    15    30    1
    40    16    21    1
    41    16    31    1
    42    16    44    1
    43    17    22    1
    44    17    27    1
    45    17    32    1
    46    18    45    1
    47    18    46    1
    48    19    47    1
    49    19    48    1
    50    20    22    1
    51    20    49    1
    52    20    50    1
    53    21    51    1
    54    22    52    1
    55    22    53    1
    56    23    54    1
    57    23    55    1
    58    23    56    1
    59    24    28    1
    60    24    33    1
    61    24    57    1
    62    25    58    1
    63    25    59    1
    64    25    60    1
    65    26    61    1
    66    26    62    1
    67    26    63    1
    68    27    28    1
    69    27    64    1
    70    27    65    1
    71    28    66    1
    72    28    67    1
    73    29    68    1
    74    29    69    1
    75    29    70    1
    76    30    71    1
    77    30    72    1
    78    30    73    1
    79    33    34    1
    80    33    35    2
    81    34    75    1
    82    34    76    1
    83    34    77    1
    84    35    80    1
    85    35    81    1
