@<TRIPOS>MOLECULE
IMPHY015217
 20 21 0 0 0
SMALL
GASTEIGER

@<TRIPOS>ATOM
      1 O           4.6783   -0.8047    0.0000 O.3     1  UNL1       -0.4885
      2 C           5.2619    0.0000    0.0000 C.3     1  UNL1        0.1015
      3 C           4.6783    0.8047    0.0000 C.3     1  UNL1        0.0127
      4 C           3.7320    0.5000    0.0000 C.ar    1  UNL1       -0.0022
      5 C           3.7320   -0.5000    0.0000 C.ar    1  UNL1        0.1242
      6 C           6.2619    0.0000    0.0000 C.3     1  UNL1       -0.0275
      7 C           2.8660    1.0000    0.0000 C.ar    1  UNL1       -0.0550
      8 C           2.8660   -1.0000    0.0000 C.ar    1  UNL1       -0.0197
      9 C           2.0000    0.5000    0.0000 C.ar    1  UNL1       -0.0613
     10 C           2.0000   -0.5000    0.0000 C.ar    1  UNL1       -0.0583
     11 H           5.5436   -0.5523    0.0000 H       1  UNL1        0.0733
     12 H           5.2156    1.1140    0.0000 H       1  UNL1        0.0350
     13 H           4.4272    1.3716    0.0000 H       1  UNL1        0.0350
     14 H           6.2619   -0.6200    0.0000 H       1  UNL1        0.0265
     15 H           6.8819    0.0000    0.0000 H       1  UNL1        0.0265
     16 H           6.2619    0.6200    0.0000 H       1  UNL1        0.0265
     17 H           2.8660    1.6200    0.0000 H       1  UNL1        0.0621
     18 H           2.8660   -1.6200    0.0000 H       1  UNL1        0.0654
     19 H           1.4631    0.8100    0.0000 H       1  UNL1        0.0618
     20 H           1.4631   -0.8100    0.0000 H       1  UNL1        0.0619
@<TRIPOS>BOND
     1     1     2    1
     2     1     5    1
     3     2     3    1
     4     2     6    1
     5     2    11    1
     6     3     4    1
     7     3    12    1
     8     3    13    1
     9     4     5   ar
    10     4     7   ar
    11     5     8   ar
    12     6    14    1
    13     6    15    1
    14     6    16    1
    15     7     9   ar
    16     7    17    1
    17     8    10   ar
    18     8    18    1
    19     9    10   ar
    20     9    19    1
    21    10    20    1
