@<TRIPOS>MOLECULE
IMPHY011262
 40 40 0 0 0
SMALL
GASTEIGER

@<TRIPOS>ATOM
      1 O           2.5859    1.6833    0.0000 O.3     1  UNL1       -0.3875
      2 C           6.2973   -0.8711    0.0000 C.3     1  UNL1       -0.0135
      3 C           5.6424   -1.6268    0.0000 C.3     1  UNL1       -0.0259
      4 C           6.4396    0.1188    0.0000 C.2     1  UNL1       -0.0817
      5 C           2.9262    0.1188    0.0000 C.3     1  UNL1       -0.0193
      6 C           3.0686   -0.8711    0.0000 C.3     1  UNL1       -0.0294
      7 C           6.6243   -1.8160    0.0000 C.3     1  UNL1       -0.0561
      8 C           7.2871   -1.0134    0.0000 C.3     1  UNL1       -0.0561
      9 C           3.3416    1.0284    0.0000 C.3     1  UNL1        0.0766
     10 C           4.6829   -1.9085    0.0000 C.2     1  UNL1       -0.0842
     11 C           3.7234   -1.6268    0.0000 C.2     1  UNL1       -0.0764
     12 C           5.1829    1.5690    0.0000 C.3     1  UNL1       -0.0114
     13 C           4.1829    1.5690    0.0000 C.2     1  UNL1       -0.0448
     14 C           6.0242    1.0284    0.0000 C.2     1  UNL1       -0.0833
     15 C           3.1828   -2.4681    0.0000 C.3     1  UNL1       -0.0438
     16 C           3.9012    2.5285    0.0000 C.2     1  UNL1       -0.0967
     17 H           5.6129   -2.2461    0.0000 H       1  UNL1        0.0316
     18 H           5.3072   -1.1052    0.0000 H       1  UNL1        0.0316
     19 H           2.4775    0.5466    0.0000 H       1  UNL1        0.0296
     20 H           3.5399    0.0305    0.0000 H       1  UNL1        0.0296
     21 H           7.0533    0.2070    0.0000 H       1  UNL1        0.0575
     22 H           2.4598   -0.7537    0.0000 H       1  UNL1        0.0311
     23 H           3.6325   -0.6135    0.0000 H       1  UNL1        0.0311
     24 H           7.1988   -1.6271    0.0000 H       1  UNL1        0.0238
     25 H           7.9008   -1.1016    0.0000 H       1  UNL1        0.0238
     26 H           6.0384   -2.0188    0.0000 H       1  UNL1        0.0238
     27 H           6.8271   -2.4019    0.0000 H       1  UNL1        0.0238
     28 H           7.2102   -1.6133    0.0000 H       1  UNL1        0.0238
     29 H           7.3753   -0.3997    0.0000 H       1  UNL1        0.0238
     30 H           2.7358    0.8966    0.0000 H       1  UNL1        0.0640
     31 H           4.6829   -2.5285    0.0000 H       1  UNL1        0.0572
     32 H           5.6703    1.9523    0.0000 H       1  UNL1        0.0353
     33 H           5.0082    0.9742    0.0000 H       1  UNL1        0.0353
     34 H           6.4927    1.4344    0.0000 H       1  UNL1        0.0572
     35 H           2.6612   -2.1329    0.0000 H       1  UNL1        0.0274
     36 H           2.8476   -2.9896    0.0000 H       1  UNL1        0.0274
     37 H           3.7044   -2.8032    0.0000 H       1  UNL1        0.0274
     38 H           4.3290    2.9772    0.0000 H       1  UNL1        0.0535
     39 H           3.2986    2.6747    0.0000 H       1  UNL1        0.0535
     40 H           2.0000    1.4805    0.0000 H       1  UNL1        0.2102
@<TRIPOS>BOND
     1     9     1    1
     2     1    40    1
     3     2     3    1
     4     2     4    1
     5     2     7    1
     6     2     8    1
     7     3    10    1
     8     3    17    1
     9     3    18    1
    10     4    14    2
    11     4    21    1
    12     5     6    1
    13     5     9    1
    14     5    19    1
    15     5    20    1
    16     6    11    1
    17     6    22    1
    18     6    23    1
    19     7    26    1
    20     7    27    1
    21     7    28    1
    22     8    24    1
    23     8    25    1
    24     8    29    1
    25     9    13    1
    26     9    30    1
    27    10    11    2
    28    10    31    1
    29    11    15    1
    30    12    13    1
    31    12    14    1
    32    12    32    1
    33    12    33    1
    34    13    16    2
    35    14    34    1
    36    15    35    1
    37    15    36    1
    38    15    37    1
    39    16    38    1
    40    16    39    1
