@<TRIPOS>MOLECULE
IMPHY011950
 50 54 0 0 0
SMALL
GASTEIGER

@<TRIPOS>ATOM
      1 O           9.7248   -0.3112    0.0000 O.2     1  UNL1       -0.4957
      2 O           7.5596   -2.5737    0.0000 O.3     1  UNL1       -0.4646
      3 O           6.2860   -1.3999    0.0000 O.2     1  UNL1       -0.2452
      4 N           6.9654    2.1163    0.0000 N.3     1  UNL1       -0.2933
      5 N           4.5124    0.9988    0.0000 N.ar    1  UNL1       -0.3564
      6 C           8.3170    0.9273    0.0000 C.3     1  UNL1        0.0157
      7 C           7.6200    0.1532    0.0000 C.3     1  UNL1        0.0029
      8 C           6.2962    1.3731    0.0000 C.3     1  UNL1        0.0515
      9 C           6.6028    0.3776    0.0000 C.3     1  UNL1       -0.0243
     10 C           7.9875    1.9154    0.0000 C.3     1  UNL1        0.0063
     11 C           9.3816    0.7181    0.0000 C.3     1  UNL1        0.1011
     12 C           5.3181    1.5810    0.0000 C.ar    1  UNL1        0.0376
     13 C           6.6564    3.0673    0.0000 C.3     1  UNL1        0.0036
     14 C           5.0091    2.5321    0.0000 C.ar    1  UNL1       -0.0164
     15 C           5.6782    3.2752    0.0000 C.3     1  UNL1       -0.0125
     16 C           7.9393   -0.8837    0.0000 C.2     1  UNL1        0.0742
     17 C           4.0150    2.5295    0.0000 C.ar    1  UNL1        0.0032
     18 C          10.0421    1.4689    0.0000 C.3     1  UNL1       -0.0275
     19 C           8.9988   -1.1175    0.0000 C.2     1  UNL1        0.0951
     20 C           3.7086    1.5838    0.0000 C.ar    1  UNL1        0.0470
     21 C           7.2616   -1.6191    0.0000 C.2     1  UNL1        0.3381
     22 C           3.3334    3.3090    0.0000 C.ar    1  UNL1       -0.0523
     23 C           2.6994    1.3521    0.0000 C.ar    1  UNL1       -0.0378
     24 C           2.3191    3.1007    0.0000 C.ar    1  UNL1       -0.0611
     25 C           2.0000    2.1156    0.0000 C.ar    1  UNL1       -0.0598
     26 C           6.8820   -3.3090    0.0000 C.3     1  UNL1        0.0820
     27 H           8.8784    1.5655    0.0000 H       1  UNL1        0.0355
     28 H           7.0440   -0.4718    0.0000 H       1  UNL1        0.0357
     29 H           5.7226    0.7459    0.0000 H       1  UNL1        0.0527
     30 H           5.9878    0.2992    0.0000 H       1  UNL1        0.0290
     31 H           6.5748   -0.2417    0.0000 H       1  UNL1        0.0290
     32 H           8.6005    2.0080    0.0000 H       1  UNL1        0.0431
     33 H           8.0011    2.5353    0.0000 H       1  UNL1        0.0431
     34 H           9.9893    0.5950    0.0000 H       1  UNL1        0.0733
     35 H           7.2703    3.1536    0.0000 H       1  UNL1        0.0430
     36 H           6.6780    3.6869    0.0000 H       1  UNL1        0.0430
     37 H           5.9105    3.8501    0.0000 H       1  UNL1        0.0326
     38 H           5.1524    3.6038    0.0000 H       1  UNL1        0.0326
     39 H           4.5113    0.3788    0.0000 H       1  UNL1        0.1656
     40 H          10.5076    1.0594    0.0000 H       1  UNL1        0.0265
     41 H          10.4516    1.9344    0.0000 H       1  UNL1        0.0265
     42 H           9.5766    1.8784    0.0000 H       1  UNL1        0.0265
     43 H           9.1881   -1.7079    0.0000 H       1  UNL1        0.1028
     44 H           3.5313    3.8966    0.0000 H       1  UNL1        0.0624
     45 H           2.5152    0.7601    0.0000 H       1  UNL1        0.0638
     46 H           1.9056    3.5626    0.0000 H       1  UNL1        0.0618
     47 H           1.3942    1.9838    0.0000 H       1  UNL1        0.0618
     48 H           6.4260   -2.8888    0.0000 H       1  UNL1        0.0661
     49 H           6.4618   -3.7649    0.0000 H       1  UNL1        0.0661
     50 H           7.3379   -3.7292    0.0000 H       1  UNL1        0.0661
@<TRIPOS>BOND
     1     1    11    1
     2     1    19    1
     3     2    21    1
     4     2    26    1
     5     3    21    2
     6     4     8    1
     7     4    10    1
     8     4    13    1
     9     5    12   ar
    10     5    20   ar
    11     5    39    1
    12     6     7    1
    13     6    10    1
    14     6    11    1
    15     6    27    1
    16     7     9    1
    17     7    16    1
    18     7    28    1
    19     8     9    1
    20     8    12    1
    21     8    29    1
    22     9    30    1
    23     9    31    1
    24    10    32    1
    25    10    33    1
    26    11    18    1
    27    11    34    1
    28    12    14   ar
    29    13    15    1
    30    13    35    1
    31    13    36    1
    32    14    15    1
    33    14    17   ar
    34    15    37    1
    35    15    38    1
    36    16    19    2
    37    16    21    1
    38    17    20   ar
    39    17    22   ar
    40    18    40    1
    41    18    41    1
    42    18    42    1
    43    19    43    1
    44    20    23   ar
    45    22    24   ar
    46    22    44    1
    47    23    25   ar
    48    23    45    1
    49    24    25   ar
    50    24    46    1
    51    25    47    1
    52    26    48    1
    53    26    49    1
    54    26    50    1
