@<TRIPOS>MOLECULE
IMPHY013968
 32 34 0 0 0
SMALL
GASTEIGER

@<TRIPOS>ATOM
      1 O           4.6660    0.7277    0.0000 O.2     1  UNL1       -0.4508
      2 O           6.4144    1.7623    0.0000 O.3     1  UNL1       -0.4884
      3 O           8.1962    0.7519    0.0000 O.3     1  UNL1       -0.4884
      4 O           4.6660   -2.2723    0.0000 O.2     1  UNL1       -0.2864
      5 O           8.1962   -1.2964    0.0000 O.3     1  UNL1       -0.5032
      6 C           5.5321   -0.7723    0.0000 C.ar    1  UNL1        0.0719
      7 C           5.5321    0.2277    0.0000 C.ar    1  UNL1        0.1845
      8 C           3.8000   -0.7723    0.0000 C.ar    1  UNL1        0.0646
      9 C           4.6660   -1.2723    0.0000 C.ar    1  UNL1        0.2004
     10 C           6.4260    0.7624    0.0000 C.ar    1  UNL1        0.2086
     11 C           3.8000    0.2277    0.0000 C.ar    1  UNL1        0.1394
     12 C           6.4260   -1.3070    0.0000 C.ar    1  UNL1       -0.0019
     13 C           7.3321    0.2485    0.0000 C.ar    1  UNL1        0.2071
     14 C           7.3321   -0.7931    0.0000 C.ar    1  UNL1        0.1631
     15 C           2.9061   -1.3070    0.0000 C.ar    1  UNL1       -0.0474
     16 C           2.9061    0.7624    0.0000 C.ar    1  UNL1       -0.0186
     17 C           2.0000   -0.7931    0.0000 C.ar    1  UNL1       -0.0609
     18 C           2.0000    0.2485    0.0000 C.ar    1  UNL1       -0.0582
     19 C           7.2746    2.2723    0.0000 C.3     1  UNL1        0.0791
     20 C           9.0641    0.2552    0.0000 C.3     1  UNL1        0.0791
     21 H           6.4188   -1.9269    0.0000 H       1  UNL1        0.0663
     22 H           2.9132   -1.9269    0.0000 H       1  UNL1        0.0626
     23 H           2.9132    1.3823    0.0000 H       1  UNL1        0.0654
     24 H           1.4643   -1.1052    0.0000 H       1  UNL1        0.0618
     25 H           1.4643    0.5606    0.0000 H       1  UNL1        0.0619
     26 H           8.1938   -1.9164    0.0000 H       1  UNL1        0.2923
     27 H           7.5908    1.7390    0.0000 H       1  UNL1        0.0660
     28 H           7.8079    2.5885    0.0000 H       1  UNL1        0.0660
     29 H           6.9584    2.8056    0.0000 H       1  UNL1        0.0660
     30 H           8.7562   -0.2829    0.0000 H       1  UNL1        0.0660
     31 H           9.6022   -0.0527    0.0000 H       1  UNL1        0.0660
     32 H           9.3720    0.7933    0.0000 H       1  UNL1        0.0660
@<TRIPOS>BOND
     1     1     7   ar
     2     1    11   ar
     3     2    10    1
     4     2    19    1
     5     3    13    1
     6     3    20    1
     7     4     9    2
     8     5    14    1
     9     5    26    1
    10     6     7   ar
    11     6     9   ar
    12     6    12   ar
    13     7    10   ar
    14     8     9   ar
    15     8    11   ar
    16     8    15   ar
    17    10    13   ar
    18    11    16   ar
    19    12    14   ar
    20    12    21    1
    21    13    14   ar
    22    15    17   ar
    23    15    22    1
    24    16    18   ar
    25    16    23    1
    26    17    18   ar
    27    17    24    1
    28    18    25    1
    29    19    27    1
    30    19    28    1
    31    19    29    1
    32    20    30    1
    33    20    31    1
    34    20    32    1
