@<TRIPOS>MOLECULE
IMPHY016322
 25 25 0 0 0
SMALL
GASTEIGER

@<TRIPOS>ATOM
      1 O           4.5032   -0.7694    0.0000 O.3     1  UNL1       -0.3734
      2 C           5.3122   -0.1816    0.0000 C.3     1  UNL1        0.0589
      3 C           3.6942   -0.1816    0.0000 C.3     1  UNL1        0.0589
      4 C           5.0032    0.7694    0.0000 C.3     1  UNL1       -0.0243
      5 C           4.0032    0.7694    0.0000 C.3     1  UNL1       -0.0243
      6 C           6.2633   -0.4907    0.0000 C.3     1  UNL1       -0.0294
      7 C           2.7431   -0.4907    0.0000 C.3     1  UNL1       -0.0294
      8 C           7.0064    0.1785    0.0000 C.3     1  UNL1       -0.0629
      9 C           2.0000    0.1785    0.0000 C.3     1  UNL1       -0.0629
     10 H           5.4092   -0.7940    0.0000 H       1  UNL1        0.0596
     11 H           3.5972   -0.7940    0.0000 H       1  UNL1        0.0596
     12 H           5.6097    0.8983    0.0000 H       1  UNL1        0.0291
     13 H           4.9384    1.3860    0.0000 H       1  UNL1        0.0291
     14 H           4.0680    1.3860    0.0000 H       1  UNL1        0.0291
     15 H           3.3968    0.8983    0.0000 H       1  UNL1        0.0291
     16 H           5.9722   -1.0381    0.0000 H       1  UNL1        0.0287
     17 H           6.7519   -0.8724    0.0000 H       1  UNL1        0.0287
     18 H           2.2546   -0.8724    0.0000 H       1  UNL1        0.0287
     19 H           3.0342   -1.0381    0.0000 H       1  UNL1        0.0287
     20 H           7.4213   -0.2823    0.0000 H       1  UNL1        0.0231
     21 H           7.4672    0.5933    0.0000 H       1  UNL1        0.0231
     22 H           6.5916    0.6392    0.0000 H       1  UNL1        0.0231
     23 H           2.4149    0.6392    0.0000 H       1  UNL1        0.0231
     24 H           1.5392    0.5933    0.0000 H       1  UNL1        0.0231
     25 H           1.5851   -0.2823    0.0000 H       1  UNL1        0.0231
@<TRIPOS>BOND
     1     1     2    1
     2     1     3    1
     3     2     4    1
     4     2     6    1
     5     2    10    1
     6     3     5    1
     7     3     7    1
     8     3    11    1
     9     4     5    1
    10     4    12    1
    11     4    13    1
    12     5    14    1
    13     5    15    1
    14     6     8    1
    15     6    16    1
    16     6    17    1
    17     7     9    1
    18     7    18    1
    19     7    19    1
    20     8    20    1
    21     8    21    1
    22     8    22    1
    23     9    23    1
    24     9    24    1
    25     9    25    1
