@<TRIPOS>MOLECULE
IMPHY006125
 73 77 0 0 0
SMALL
GASTEIGER

@<TRIPOS>ATOM
      1 O           5.1350   -2.4279    0.0000 O.3     1  UNL1       -0.3313
      2 O          12.9628    3.1179    0.0000 O.3     1  UNL1       -0.3313
      3 O           6.8671   -2.4279    0.0000 O.3     1  UNL1       -0.4606
      4 O           5.1350   -5.4279    0.0000 O.3     1  UNL1       -0.3864
      5 O           3.4030   -4.4279    0.0000 O.3     1  UNL1       -0.3865
      6 O          12.0910    1.6213    0.0000 O.3     1  UNL1       -0.4572
      7 O          15.5627    3.6079    0.0000 O.3     1  UNL1       -0.3865
      8 O          15.5550    1.6079    0.0000 O.3     1  UNL1       -0.3864
      9 O           6.8671   -4.4279    0.0000 O.3     1  UNL1       -0.3829
     10 O          13.8191    0.6146    0.0000 O.3     1  UNL1       -0.3829
     11 O           2.5369   -2.9279    0.0000 O.3     1  UNL1       -0.3924
     12 O          12.9705    5.1179    0.0000 O.3     1  UNL1       -0.3924
     13 O           8.6230    0.6346    0.0000 O.2     1  UNL1       -0.4544
     14 O          12.0987    3.6212    0.0000 O.3     1  UNL1       -0.5033
     15 O           5.1208    0.6513    0.0000 O.3     1  UNL1       -0.5058
     16 O           6.0308    2.1446    0.0000 O.2     1  UNL1       -0.2869
     17 C           5.1350   -4.4279    0.0000 C.3     1  UNL1        0.1152
     18 C           4.2690   -3.9279    0.0000 C.3     1  UNL1        0.1120
     19 C          14.6948    3.1112    0.0000 C.3     1  UNL1        0.1120
     20 C          14.6909    2.1112    0.0000 C.3     1  UNL1        0.1152
     21 C           4.2690   -2.9279    0.0000 C.3     1  UNL1        0.1140
     22 C           6.0010   -3.9279    0.0000 C.3     1  UNL1        0.1454
     23 C          13.8307    3.6146    0.0000 C.3     1  UNL1        0.1140
     24 C          13.8230    1.6146    0.0000 C.3     1  UNL1        0.1454
     25 C           6.0010   -2.9279    0.0000 C.3     1  UNL1        0.2308
     26 C          12.9589    2.1179    0.0000 C.3     1  UNL1        0.2310
     27 C           3.4030   -2.4279    0.0000 C.3     1  UNL1        0.0731
     28 C          13.8346    4.6146    0.0000 C.3     1  UNL1        0.0731
     29 C           6.8671   -1.4279    0.0000 C.ar    1  UNL1        0.1310
     30 C          11.2269    2.1246    0.0000 C.ar    1  UNL1        0.1658
     31 C           7.7671   -0.9036    0.0000 C.ar    1  UNL1        0.0235
     32 C          10.3589    1.6279    0.0000 C.ar    1  UNL1       -0.0055
     33 C           5.9670   -0.9036    0.0000 C.ar    1  UNL1        0.0226
     34 C          11.2307    3.1246    0.0000 C.ar    1  UNL1        0.1586
     35 C           7.7551    0.1380    0.0000 C.ar    1  UNL1        0.1462
     36 C           9.4948    2.1313    0.0000 C.ar    1  UNL1        0.0211
     37 C           6.8910    0.6413    0.0000 C.ar    1  UNL1        0.1055
     38 C           5.9790    0.1380    0.0000 C.ar    1  UNL1        0.1347
     39 C           8.6269    1.6346    0.0000 C.ar    1  UNL1        0.1393
     40 C          10.3666    3.6279    0.0000 C.ar    1  UNL1       -0.0159
     41 C           9.4987    3.1313    0.0000 C.ar    1  UNL1       -0.0474
     42 C           6.8948    1.6413    0.0000 C.ar    1  UNL1        0.1966
     43 C           7.7628    2.1380    0.0000 C.ar    1  UNL1        0.0288
     44 H           5.6720   -4.7379    0.0000 H       1  UNL1        0.0648
     45 H           4.2690   -4.5479    0.0000 H       1  UNL1        0.0647
     46 H          14.6972    3.7312    0.0000 H       1  UNL1        0.0647
     47 H          15.2291    2.4192    0.0000 H       1  UNL1        0.0648
     48 H           4.2690   -2.3079    0.0000 H       1  UNL1        0.0647
     49 H           6.5380   -3.6179    0.0000 H       1  UNL1        0.0683
     50 H          13.2950    3.9266    0.0000 H       1  UNL1        0.0647
     51 H          14.3587    1.3025    0.0000 H       1  UNL1        0.0683
     52 H           6.0010   -2.3079    0.0000 H       1  UNL1        0.1084
     53 H          12.4232    2.4300    0.0000 H       1  UNL1        0.1084
     54 H           3.8015   -1.9529    0.0000 H       1  UNL1        0.0584
     55 H           3.0044   -1.9529    0.0000 H       1  UNL1        0.0584
     56 H          14.4447    4.5046    0.0000 H       1  UNL1        0.0584
     57 H          14.0489    5.1964    0.0000 H       1  UNL1        0.0584
     58 H           4.5981   -5.7379    0.0000 H       1  UNL1        0.2100
     59 H           3.4030   -5.0479    0.0000 H       1  UNL1        0.2100
     60 H          15.5651    4.2279    0.0000 H       1  UNL1        0.2100
     61 H          16.0932    1.9158    0.0000 H       1  UNL1        0.2100
     62 H           6.8671   -5.0479    0.0000 H       1  UNL1        0.2102
     63 H          14.3549    0.3025    0.0000 H       1  UNL1        0.2102
     64 H           2.0000   -2.6179    0.0000 H       1  UNL1        0.2095
     65 H          12.9729    5.7379    0.0000 H       1  UNL1        0.2095
     66 H           8.3064   -1.2094    0.0000 H       1  UNL1        0.0691
     67 H          10.3565    1.0079    0.0000 H       1  UNL1        0.0662
     68 H           5.4277   -1.2094    0.0000 H       1  UNL1        0.0691
     69 H          10.3690    4.2479    0.0000 H       1  UNL1        0.0655
     70 H           8.9630    3.4433    0.0000 H       1  UNL1        0.0626
     71 H           7.7652    2.7579    0.0000 H       1  UNL1        0.0693
     72 H          12.1011    4.2412    0.0000 H       1  UNL1        0.2923
     73 H           4.5792    0.3496    0.0000 H       1  UNL1        0.2922
@<TRIPOS>BOND
     1     1    21    1
     2     1    25    1
     3     2    23    1
     4     2    26    1
     5    25     3    1
     6     3    29    1
     7    17     4    1
     8     4    58    1
     9    18     5    1
    10     5    59    1
    11    26     6    1
    12     6    30    1
    13    19     7    1
    14     7    60    1
    15    20     8    1
    16     8    61    1
    17    22     9    1
    18     9    62    1
    19    24    10    1
    20    10    63    1
    21    11    27    1
    22    11    64    1
    23    12    28    1
    24    12    65    1
    25    13    35   ar
    26    13    39   ar
    27    14    34    1
    28    14    72    1
    29    15    38    1
    30    15    73    1
    31    16    42    2
    32    17    18    1
    33    17    22    1
    34    17    44    1
    35    18    21    1
    36    18    45    1
    37    19    20    1
    38    19    23    1
    39    19    46    1
    40    20    24    1
    41    20    47    1
    42    21    27    1
    43    21    48    1
    44    22    25    1
    45    22    49    1
    46    23    28    1
    47    23    50    1
    48    24    26    1
    49    24    51    1
    50    25    52    1
    51    26    53    1
    52    27    54    1
    53    27    55    1
    54    28    56    1
    55    28    57    1
    56    29    31   ar
    57    29    33   ar
    58    30    32   ar
    59    30    34   ar
    60    31    35   ar
    61    31    66    1
    62    32    36   ar
    63    32    67    1
    64    33    38   ar
    65    33    68    1
    66    34    40   ar
    67    35    37   ar
    68    36    39    1
    69    36    41   ar
    70    37    38   ar
    71    37    42   ar
    72    39    43   ar
    73    40    41   ar
    74    40    69    1
    75    41    70    1
    76    42    43   ar
    77    43    71    1
