@<TRIPOS>MOLECULE
IMPHY015551
 40 42 0 0 0
SMALL
GASTEIGER

@<TRIPOS>ATOM
      1 O           5.9741    2.1424    0.0000 O.3     1  UNL1       -0.3907
      2 C           4.0430   -1.0240    0.0000 C.3     1  UNL1       -0.0194
      3 C           3.1420   -0.5901    0.0000 C.3     1  UNL1       -0.0291
      4 C           2.9195    0.3849    0.0000 C.3     1  UNL1       -0.0250
      5 C           3.5430    1.1667    0.0000 C.3     1  UNL1       -0.0118
      6 C           4.1499    0.1528    0.0000 C.3     1  UNL1       -0.0395
      7 C           3.9070   -2.0087    0.0000 C.3     1  UNL1       -0.0376
      8 C           2.4569   -1.3104    0.0000 C.3     1  UNL1       -0.0489
      9 C           4.9440   -0.5901    0.0000 C.3     1  UNL1       -0.0282
     10 C           2.9288   -2.1853    0.0000 C.3     1  UNL1       -0.0497
     11 C           4.5430    1.1667    0.0000 C.2     1  UNL1       -0.0448
     12 C           2.2616    1.1379    0.0000 C.3     1  UNL1       -0.0590
     13 C           2.0000   -0.0082    0.0000 C.3     1  UNL1       -0.0590
     14 C           5.1665    0.3849    0.0000 C.2     1  UNL1       -0.0818
     15 C           4.6286   -2.7010    0.0000 C.3     1  UNL1       -0.0619
     16 C           4.9769    2.0677    0.0000 C.3     1  UNL1        0.0656
     17 H           2.5442   -0.4259    0.0000 H       1  UNL1        0.0312
     18 H           3.2740    1.7253    0.0000 H       1  UNL1        0.0352
     19 H           4.7199   -0.0910    0.0000 H       1  UNL1        0.0277
     20 H           4.5577    0.6198    0.0000 H       1  UNL1        0.0277
     21 H           3.7279   -2.6023    0.0000 H       1  UNL1        0.0304
     22 H           2.0551   -0.8382    0.0000 H       1  UNL1        0.0268
     23 H           1.9452   -1.6604    0.0000 H       1  UNL1        0.0268
     24 H           5.0820   -1.1945    0.0000 H       1  UNL1        0.0313
     25 H           5.5640   -0.5901    0.0000 H       1  UNL1        0.0313
     26 H           2.3551   -2.4206    0.0000 H       1  UNL1        0.0268
     27 H           3.1025   -2.7805    0.0000 H       1  UNL1        0.0268
     28 H           2.7285    1.5459    0.0000 H       1  UNL1        0.0235
     29 H           1.8537    1.6048    0.0000 H       1  UNL1        0.0235
     30 H           1.7947    0.7300    0.0000 H       1  UNL1        0.0235
     31 H           1.7563    0.5619    0.0000 H       1  UNL1        0.0235
     32 H           1.4299   -0.2518    0.0000 H       1  UNL1        0.0235
     33 H           2.2437   -0.5783    0.0000 H       1  UNL1        0.0235
     34 H           5.7710    0.5228    0.0000 H       1  UNL1        0.0573
     35 H           4.1994   -3.1484    0.0000 H       1  UNL1        0.0233
     36 H           5.0760   -3.1302    0.0000 H       1  UNL1        0.0233
     37 H           5.0578   -2.2536    0.0000 H       1  UNL1        0.0233
     38 H           5.0386    2.6846    0.0000 H       1  UNL1        0.0604
     39 H           4.3801    2.2356    0.0000 H       1  UNL1        0.0604
     40 H           6.2431    2.7010    0.0000 H       1  UNL1        0.2098
@<TRIPOS>BOND
     1     1    16    1
     2     1    40    1
     3     2     3    1
     4     2     6    1
     5     2     7    1
     6     2     9    1
     7     3     4    1
     8     3     8    1
     9     3    17    1
    10     4     5    1
    11     4    12    1
    12     4    13    1
    13     5     6    1
    14     5    11    1
    15     5    18    1
    16     6    19    1
    17     6    20    1
    18     7    10    1
    19     7    15    1
    20     7    21    1
    21     8    10    1
    22     8    22    1
    23     8    23    1
    24     9    14    1
    25     9    24    1
    26     9    25    1
    27    10    26    1
    28    10    27    1
    29    11    14    2
    30    11    16    1
    31    12    28    1
    32    12    29    1
    33    12    30    1
    34    13    31    1
    35    13    32    1
    36    13    33    1
    37    14    34    1
    38    15    35    1
    39    15    36    1
    40    15    37    1
    41    16    38    1
    42    16    39    1
