@<TRIPOS>MOLECULE
IMPHY016911
 175 184 0 0 0
SMALL
GASTEIGER

@<TRIPOS>ATOM
      1 O          20.7804    3.9787    0.0000 O.3     1  UNL1       -0.3450
      2 O          21.0827    5.9188    0.0000 O.3     1  UNL1       -0.3642
      3 O          12.9292    1.0891    0.0000 O.3     1  UNL1       -0.3451
      4 O          11.1972    1.0891    0.0000 O.3     1  UNL1       -0.3405
      5 O          24.7817    3.2468    0.0000 O.3     1  UNL1       -0.3484
      6 O          12.9292    3.0891    0.0000 O.3     1  UNL1       -0.3841
      7 O          11.1972    4.0891    0.0000 O.3     1  UNL1       -0.3864
      8 O           9.4651    3.0891    0.0000 O.3     1  UNL1       -0.3865
      9 O          26.2843    2.3853    0.0000 O.3     1  UNL1       -0.3405
     10 O           9.4651    0.0891    0.0000 O.3     1  UNL1       -0.3460
     11 O          23.7869    1.5118    0.0000 O.3     1  UNL1       -0.3841
     12 O          24.7921   -0.2173    0.0000 O.3     1  UNL1       -0.3864
     13 O          26.7921   -0.2113    0.0000 O.3     1  UNL1       -0.3865
     14 O           7.7331    0.0891    0.0000 O.3     1  UNL1       -0.3405
     15 O          28.2843    2.3912    0.0000 O.3     1  UNL1       -0.3924
     16 O           9.4651   -1.9109    0.0000 O.3     1  UNL1       -0.3378
     17 O           7.7331   -2.9109    0.0000 O.3     1  UNL1       -0.3864
     18 O           6.0010   -1.9109    0.0000 O.3     1  UNL1       -0.3402
     19 O           8.5991   -3.4109    0.0000 O.3     1  UNL1       -0.3431
     20 O           6.0010    1.0891    0.0000 O.3     1  UNL1       -0.3924
     21 O           5.1350   -0.4109    0.0000 O.3     1  UNL1       -0.3461
     22 O          11.1972   -2.9109    0.0000 O.3     1  UNL1       -0.3841
     23 O          11.1972   -4.9109    0.0000 O.3     1  UNL1       -0.3864
     24 O           9.4651   -5.9109    0.0000 O.3     1  UNL1       -0.3866
     25 O           4.2690   -2.9109    0.0000 O.3     1  UNL1       -0.3841
     26 O           2.5369   -1.9109    0.0000 O.3     1  UNL1       -0.3864
     27 O           2.5369    0.0891    0.0000 O.3     1  UNL1       -0.3869
     28 C          18.3105    4.1622    0.0000 C.3     1  UNL1       -0.0233
     29 C          18.3144    3.1622    0.0000 C.3     1  UNL1       -0.0295
     30 C          19.2556    4.4706    0.0000 C.3     1  UNL1       -0.0015
     31 C          17.4503    2.6588    0.0000 C.3     1  UNL1       -0.0306
     32 C          19.8423    3.6681    0.0000 C.3     1  UNL1        0.0660
     33 C          16.5823    3.1555    0.0000 C.3     1  UNL1       -0.0285
     34 C          19.2618    2.8611    0.0000 C.3     1  UNL1       -0.0226
     35 C          17.4426    4.6588    0.0000 C.3     1  UNL1       -0.0467
     36 C          19.8361    5.2702    0.0000 C.3     1  UNL1        0.0158
     37 C          16.5785    4.1555    0.0000 C.3     1  UNL1       -0.0486
     38 C          15.6743    2.6452    0.0000 C.3     1  UNL1       -0.0078
     39 C          20.7766    4.9669    0.0000 C.3     1  UNL1        0.1704
     40 C          18.3067    5.1622    0.0000 C.3     1  UNL1       -0.0590
     41 C          17.4704    1.6174    0.0000 C.3     1  UNL1       -0.0311
     42 C          15.6703    1.6035    0.0000 C.2     1  UNL1       -0.0648
     43 C          14.7453    3.2057    0.0000 C.3     1  UNL1       -0.0413
     44 C          16.5744    1.0862    0.0000 C.2     1  UNL1       -0.0839
     45 C          19.5259    6.2209    0.0000 C.3     1  UNL1       -0.0572
     46 C          15.6782    3.6452    0.0000 C.3     1  UNL1       -0.0556
     47 C          21.7766    4.9699    0.0000 C.3     1  UNL1        0.0018
     48 C          14.7370    1.0502    0.0000 C.3     1  UNL1       -0.0047
     49 C          13.7994    2.6741    0.0000 C.3     1  UNL1       -0.0254
     50 C          13.7953    1.5891    0.0000 C.3     1  UNL1        0.0655
     51 C          22.2791    4.1053    0.0000 C.3     1  UNL1       -0.0435
     52 C          23.2791    4.1083    0.0000 C.3     1  UNL1       -0.0201
     53 C          12.0632    1.5891    0.0000 C.3     1  UNL1        0.1882
     54 C          23.7817    3.2438    0.0000 C.3     1  UNL1        0.0533
     55 C          23.7766    4.9758    0.0000 C.3     1  UNL1       -0.0603
     56 C          12.0632    2.5891    0.0000 C.3     1  UNL1        0.1341
     57 C          11.1972    3.0891    0.0000 C.3     1  UNL1        0.1141
     58 C          10.3312    1.5891    0.0000 C.3     1  UNL1        0.1134
     59 C          10.3312    2.5891    0.0000 C.3     1  UNL1        0.1119
     60 C          25.2843    2.3823    0.0000 C.3     1  UNL1        0.1879
     61 C           9.4651    1.0891    0.0000 C.3     1  UNL1        0.0796
     62 C          24.7869    1.5148    0.0000 C.3     1  UNL1        0.1341
     63 C          25.2895    0.6502    0.0000 C.3     1  UNL1        0.1141
     64 C          26.7869    1.5207    0.0000 C.3     1  UNL1        0.1130
     65 C          26.2895    0.6532    0.0000 C.3     1  UNL1        0.1119
     66 C           8.5991   -0.4109    0.0000 C.3     1  UNL1        0.1884
     67 C          27.7869    1.5237    0.0000 C.3     1  UNL1        0.0730
     68 C           8.5991   -1.4109    0.0000 C.3     1  UNL1        0.1406
     69 C           7.7331   -1.9109    0.0000 C.3     1  UNL1        0.1148
     70 C           6.8671   -0.4109    0.0000 C.3     1  UNL1        0.1134
     71 C           6.8671   -1.4109    0.0000 C.3     1  UNL1        0.1184
     72 C           6.0010    0.0891    0.0000 C.3     1  UNL1        0.0730
     73 C           9.4651   -2.9109    0.0000 C.3     1  UNL1        0.1884
     74 C          10.3312   -3.4109    0.0000 C.3     1  UNL1        0.1341
     75 C           5.1350   -1.4109    0.0000 C.3     1  UNL1        0.1880
     76 C          10.3312   -4.4109    0.0000 C.3     1  UNL1        0.1140
     77 C           8.5991   -4.4109    0.0000 C.3     1  UNL1        0.0873
     78 C           9.4651   -4.9109    0.0000 C.3     1  UNL1        0.1095
     79 C           4.2690   -1.9109    0.0000 C.3     1  UNL1        0.1341
     80 C           3.4030   -1.4109    0.0000 C.3     1  UNL1        0.1137
     81 C           3.4030   -0.4109    0.0000 C.3     1  UNL1        0.1069
     82 C           4.2690    0.0891    0.0000 C.3     1  UNL1        0.0792
     83 C           7.7331   -4.9109    0.0000 C.3     1  UNL1       -0.0361
     84 H          18.3824    2.5459    0.0000 H       1  UNL1        0.0310
     85 H          18.8907    4.9718    0.0000 H       1  UNL1        0.0335
     86 H          17.9908    2.3551    0.0000 H       1  UNL1        0.0310
     87 H          20.2093    3.1684    0.0000 H       1  UNL1        0.0600
     88 H          17.1181    3.4676    0.0000 H       1  UNL1        0.0312
     89 H          19.0129    2.2932    0.0000 H       1  UNL1        0.0293
     90 H          19.8003    2.5540    0.0000 H       1  UNL1        0.0293
     91 H          17.8393    5.1353    0.0000 H       1  UNL1        0.0271
     92 H          17.0422    5.1322    0.0000 H       1  UNL1        0.0271
     93 H          19.2236    5.3667    0.0000 H       1  UNL1        0.0354
     94 H          16.3642    4.7373    0.0000 H       1  UNL1        0.0268
     95 H          15.9683    4.0455    0.0000 H       1  UNL1        0.0268
     96 H          18.9267    5.1646    0.0000 H       1  UNL1        0.0235
     97 H          18.3043    5.7822    0.0000 H       1  UNL1        0.0235
     98 H          17.6867    5.1598    0.0000 H       1  UNL1        0.0235
     99 H          17.6906    1.0379    0.0000 H       1  UNL1        0.0310
    100 H          18.0791    1.7353    0.0000 H       1  UNL1        0.0310
    101 H          15.1517    3.6739    0.0000 H       1  UNL1        0.0274
    102 H          14.3535    3.6862    0.0000 H       1  UNL1        0.0274
    103 H          16.5791    0.4662    0.0000 H       1  UNL1        0.0572
    104 H          20.1153    6.4132    0.0000 H       1  UNL1        0.0234
    105 H          19.3335    6.8103    0.0000 H       1  UNL1        0.0234
    106 H          18.9365    6.0286    0.0000 H       1  UNL1        0.0234
    107 H          16.2981    3.6428    0.0000 H       1  UNL1        0.0238
    108 H          15.6805    4.2652    0.0000 H       1  UNL1        0.0238
    109 H          15.0582    3.6475    0.0000 H       1  UNL1        0.0238
    110 H          22.3585    5.1837    0.0000 H       1  UNL1        0.0317
    111 H          21.6671    5.5801    0.0000 H       1  UNL1        0.0317
    112 H          14.3415    0.5727    0.0000 H       1  UNL1        0.0335
    113 H          15.1398    0.5789    0.0000 H       1  UNL1        0.0335
    114 H          13.5926    3.2586    0.0000 H       1  UNL1        0.0290
    115 H          13.1882    2.5703    0.0000 H       1  UNL1        0.0290
    116 H          13.7965    0.9691    0.0000 H       1  UNL1        0.0600
    117 H          21.6888    6.0496    0.0000 H       1  UNL1        0.2128
    118 H          21.6972    3.8916    0.0000 H       1  UNL1        0.0270
    119 H          22.3886    3.4951    0.0000 H       1  UNL1        0.0270
    120 H          22.9675    4.6443    0.0000 H       1  UNL1        0.0320
    121 H          12.6002    1.8991    0.0000 H       1  UNL1        0.0937
    122 H          23.1998    3.0300    0.0000 H       1  UNL1        0.0563
    123 H          23.8912    2.6336    0.0000 H       1  UNL1        0.0563
    124 H          24.3144    4.6674    0.0000 H       1  UNL1        0.0233
    125 H          24.0849    5.5137    0.0000 H       1  UNL1        0.0233
    126 H          23.2387    5.2842    0.0000 H       1  UNL1        0.0233
    127 H          12.0632    3.2091    0.0000 H       1  UNL1        0.0671
    128 H          10.6603    3.3991    0.0000 H       1  UNL1        0.0648
    129 H          10.3312    0.9691    0.0000 H       1  UNL1        0.0647
    130 H           9.7942    2.2791    0.0000 H       1  UNL1        0.0647
    131 H          12.9292    3.7091    0.0000 H       1  UNL1        0.2101
    132 H          24.6643    2.3804    0.0000 H       1  UNL1        0.0937
    133 H           9.2531    1.6717    0.0000 H       1  UNL1        0.0587
    134 H           8.8546    0.9814    0.0000 H       1  UNL1        0.0587
    135 H          10.6603    4.3991    0.0000 H       1  UNL1        0.2100
    136 H          24.4785    0.9769    0.0000 H       1  UNL1        0.0671
    137 H           9.4651    3.7091    0.0000 H       1  UNL1        0.2100
    138 H          24.6695    0.6484    0.0000 H       1  UNL1        0.0648
    139 H          27.0953    2.0586    0.0000 H       1  UNL1        0.0647
    140 H          25.9811    0.1154    0.0000 H       1  UNL1        0.0647
    141 H          23.4785    0.9739    0.0000 H       1  UNL1        0.2101
    142 H           8.5991    0.2091    0.0000 H       1  UNL1        0.0938
    143 H          27.6810    0.9128    0.0000 H       1  UNL1        0.0584
    144 H          28.3701    1.3134    0.0000 H       1  UNL1        0.0584
    145 H          25.1037   -0.7533    0.0000 H       1  UNL1        0.2100
    146 H           8.5991   -2.0309    0.0000 H       1  UNL1        0.0675
    147 H          27.4121   -0.2095    0.0000 H       1  UNL1        0.2100
    148 H           7.1962   -2.2209    0.0000 H       1  UNL1        0.0648
    149 H           6.8671    0.2091    0.0000 H       1  UNL1        0.0647
    150 H           6.3301   -1.1009    0.0000 H       1  UNL1        0.0651
    151 H          28.9043    2.3931    0.0000 H       1  UNL1        0.2095
    152 H           5.3905    0.1967    0.0000 H       1  UNL1        0.0584
    153 H           5.7890   -0.4935    0.0000 H       1  UNL1        0.0584
    154 H          10.0021   -2.6009    0.0000 H       1  UNL1        0.0938
    155 H           7.1962   -3.2209    0.0000 H       1  UNL1        0.2100
    156 H          10.8681   -3.7209    0.0000 H       1  UNL1        0.0671
    157 H           5.1350   -2.0309    0.0000 H       1  UNL1        0.0937
    158 H          10.8681   -4.1009    0.0000 H       1  UNL1        0.0648
    159 H           5.4641    1.3991    0.0000 H       1  UNL1        0.2095
    160 H           8.0622   -4.1009    0.0000 H       1  UNL1        0.0621
    161 H          10.0021   -5.2209    0.0000 H       1  UNL1        0.0646
    162 H           3.7320   -2.2209    0.0000 H       1  UNL1        0.0671
    163 H           2.8660   -1.1009    0.0000 H       1  UNL1        0.0647
    164 H          11.7341   -3.2209    0.0000 H       1  UNL1        0.2101
    165 H           3.4030    0.2091    0.0000 H       1  UNL1        0.0643
    166 H           4.6675    0.5640    0.0000 H       1  UNL1        0.0587
    167 H           3.8705    0.5640    0.0000 H       1  UNL1        0.0587
    168 H           7.4231   -4.3740    0.0000 H       1  UNL1        0.0255
    169 H           7.1962   -5.2209    0.0000 H       1  UNL1        0.0255
    170 H           8.0431   -5.4478    0.0000 H       1  UNL1        0.0255
    171 H          11.1972   -5.5309    0.0000 H       1  UNL1        0.2100
    172 H          10.0021   -6.2209    0.0000 H       1  UNL1        0.2100
    173 H           3.7320   -3.2209    0.0000 H       1  UNL1        0.2101
    174 H           2.0000   -1.6009    0.0000 H       1  UNL1        0.2100
    175 H           2.5369    0.7091    0.0000 H       1  UNL1        0.2100
@<TRIPOS>BOND
     1     1    32    1
     2     1    39    1
     3     2    39    1
     4     2   117    1
     5     3    50    1
     6     3    53    1
     7     4    53    1
     8     4    58    1
     9     5    54    1
    10     5    60    1
    11     6    56    1
    12     6   131    1
    13     7    57    1
    14     7   135    1
    15     8    59    1
    16     8   137    1
    17     9    60    1
    18     9    64    1
    19    10    61    1
    20    10    66    1
    21    11    62    1
    22    11   141    1
    23    12    63    1
    24    12   145    1
    25    13    65    1
    26    13   147    1
    27    14    66    1
    28    14    70    1
    29    15    67    1
    30    15   151    1
    31    16    68    1
    32    16    73    1
    33    17    69    1
    34    17   155    1
    35    18    71    1
    36    18    75    1
    37    19    73    1
    38    19    77    1
    39    20    72    1
    40    20   159    1
    41    21    75    1
    42    21    82    1
    43    22    74    1
    44    22   164    1
    45    23    76    1
    46    23   171    1
    47    24    78    1
    48    24   172    1
    49    25    79    1
    50    25   173    1
    51    26    80    1
    52    26   174    1
    53    27    81    1
    54    27   175    1
    55    28    29    1
    56    28    30    1
    57    28    35    1
    58    28    40    1
    59    29    31    1
    60    29    34    1
    61    29    84    1
    62    30    32    1
    63    30    36    1
    64    30    85    1
    65    31    33    1
    66    31    41    1
    67    31    86    1
    68    32    34    1
    69    32    87    1
    70    33    37    1
    71    33    38    1
    72    33    88    1
    73    34    89    1
    74    34    90    1
    75    35    37    1
    76    35    91    1
    77    35    92    1
    78    36    39    1
    79    36    45    1
    80    36    93    1
    81    37    94    1
    82    37    95    1
    83    38    42    1
    84    38    43    1
    85    38    46    1
    86    39    47    1
    87    40    96    1
    88    40    97    1
    89    40    98    1
    90    41    44    1
    91    41    99    1
    92    41   100    1
    93    42    44    2
    94    42    48    1
    95    43    49    1
    96    43   101    1
    97    43   102    1
    98    44   103    1
    99    45   104    1
   100    45   105    1
   101    45   106    1
   102    46   107    1
   103    46   108    1
   104    46   109    1
   105    47    51    1
   106    47   110    1
   107    47   111    1
   108    48    50    1
   109    48   112    1
   110    48   113    1
   111    49    50    1
   112    49   114    1
   113    49   115    1
   114    50   116    1
   115    51    52    1
   116    51   118    1
   117    51   119    1
   118    52    54    1
   119    52    55    1
   120    52   120    1
   121    53    56    1
   122    53   121    1
   123    54   122    1
   124    54   123    1
   125    55   124    1
   126    55   125    1
   127    55   126    1
   128    56    57    1
   129    56   127    1
   130    57    59    1
   131    57   128    1
   132    58    59    1
   133    58    61    1
   134    58   129    1
   135    59   130    1
   136    60    62    1
   137    60   132    1
   138    61   133    1
   139    61   134    1
   140    62    63    1
   141    62   136    1
   142    63    65    1
   143    63   138    1
   144    64    65    1
   145    64    67    1
   146    64   139    1
   147    65   140    1
   148    66    68    1
   149    66   142    1
   150    67   143    1
   151    67   144    1
   152    68    69    1
   153    68   146    1
   154    69    71    1
   155    69   148    1
   156    70    71    1
   157    70    72    1
   158    70   149    1
   159    71   150    1
   160    72   152    1
   161    72   153    1
   162    73    74    1
   163    73   154    1
   164    74    76    1
   165    74   156    1
   166    75    79    1
   167    75   157    1
   168    76    78    1
   169    76   158    1
   170    77    78    1
   171    77    83    1
   172    77   160    1
   173    78   161    1
   174    79    80    1
   175    79   162    1
   176    80    81    1
   177    80   163    1
   178    81    82    1
   179    81   165    1
   180    82   166    1
   181    82   167    1
   182    83   168    1
   183    83   169    1
   184    83   170    1
