@<TRIPOS>MOLECULE
IMPHY010736
 24 25 0 0 0
SMALL
GASTEIGER

@<TRIPOS>ATOM
      1 O           6.3301    0.5000    0.0000 O.3     1  UNL1       -0.3157
      2 O           4.5981    0.5000    0.0000 O.3     1  UNL1       -0.4439
      3 O           6.3301    3.5000    0.0000 O.3     1  UNL1       -0.2173
      4 O           8.0622    2.5000    0.0000 O.3     1  UNL1       -0.2176
      5 O           4.5981    2.5000    0.0000 O.3     1  UNL1       -0.2135
      6 O           8.0622   -0.5000    0.0000 O.3     1  UNL1       -0.2176
      7 O           2.8660   -0.5000    0.0000 O.3     1  UNL1       -0.2830
      8 O           6.3301   -0.5000    0.0000 O.3     1  UNL1       -0.2831
      9 O           4.5981   -3.5000    0.0000 O.3     1  UNL1       -0.2863
     10 O           2.0000   -2.0000    0.0000 O.2     1  UNL1       -0.2911
     11 C           6.3301    2.5000    0.0000 C.3     1  UNL1        0.2211
     12 C           7.1962    2.0000    0.0000 C.3     1  UNL1        0.2145
     13 C           5.4641    2.0000    0.0000 C.3     1  UNL1        0.2542
     14 C           7.1962    1.0000    0.0000 C.3     1  UNL1        0.1846
     15 C           5.4641    1.0000    0.0000 C.3     1  UNL1        0.3220
     16 C           8.0622    0.5000    0.0000 C.3     1  UNL1        0.2142
     17 C           4.5981   -0.5000    0.0000 C.ar    1  UNL1        0.2189
     18 C           3.7321   -1.0000    0.0000 C.ar    1  UNL1        0.2384
     19 C           5.4641   -1.0000    0.0000 C.ar    1  UNL1        0.2358
     20 C           3.7321   -2.0000    0.0000 C.ar    1  UNL1        0.1157
     21 C           5.4641   -2.0000    0.0000 C.ar    1  UNL1        0.0875
     22 C           4.5981   -2.5000    0.0000 C.ar    1  UNL1        0.2049
     23 C           2.8660   -2.5000    0.0000 C.2     1  UNL1        0.1798
     24 C           2.8660   -3.5000    0.0000 C.3     1  UNL1        0.0775
@<TRIPOS>BOND
     1     1    14    1
     2     1    15    1
     3     2    17    1
     4     6    16    1
     5     7    18    1
     6     8    19    1
     7     9    22    1
     8    10    23    2
     9    11     3    1
    10    11    12    1
    11    11    13    1
    12    12     4    1
    13    12    14    1
    14    13     5    1
    15    13    15    1
    16    14    16    1
    17    15     2    1
    18    17    18   ar
    19    17    19   ar
    20    18    20   ar
    21    19    21   ar
    22    20    22   ar
    23    20    23    1
    24    21    22   ar
    25    23    24    1
