@<TRIPOS>MOLECULE
IMPHY009829
 100 99 0 0 0
SMALL
GASTEIGER

@<TRIPOS>ATOM
      1 O          21.0526    0.5000    0.0000 O.2     1  UNL1       -0.2921
      2 O           7.1962   -1.5000    0.0000 O.2     1  UNL1       -0.2921
      3 O          23.6506    4.0000    0.0000 O.2     1  UNL1       -0.2977
      4 O           2.8660   -2.0000    0.0000 O.2     1  UNL1       -0.2977
      5 C          22.7846    0.5000    0.0000 C.3     1  UNL1        0.0274
      6 C           6.3301   -3.0000    0.0000 C.3     1  UNL1        0.0274
      7 C          23.6506    1.0000    0.0000 C.3     1  UNL1       -0.0405
      8 C           5.4641   -3.5000    0.0000 C.3     1  UNL1       -0.0405
      9 C          23.6506    2.0000    0.0000 C.3     1  UNL1       -0.0455
     10 C           4.5981   -3.0000    0.0000 C.3     1  UNL1       -0.0455
     11 C          22.2846    1.3660    0.0000 C.3     1  UNL1       -0.0528
     12 C          23.2846   -0.3660    0.0000 C.3     1  UNL1       -0.0528
     13 C           5.8301   -2.1340    0.0000 C.3     1  UNL1       -0.0528
     14 C           6.8301   -3.8660    0.0000 C.3     1  UNL1       -0.0528
     15 C          21.9186   -0.0000    0.0000 C.2     1  UNL1        0.1617
     16 C           7.1962   -2.5000    0.0000 C.2     1  UNL1        0.1617
     17 C          24.5167    2.5000    0.0000 C.3     1  UNL1        0.0056
     18 C           3.7320   -3.5000    0.0000 C.3     1  UNL1        0.0056
     19 C          21.9186   -1.0000    0.0000 C.2     1  UNL1       -0.0184
     20 C           8.0622   -3.0000    0.0000 C.2     1  UNL1       -0.0184
     21 C          24.5167    3.5000    0.0000 C.2     1  UNL1        0.1303
     22 C           2.8660   -3.0000    0.0000 C.2     1  UNL1        0.1303
     23 C          21.0526   -1.5000    0.0000 C.2     1  UNL1       -0.0555
     24 C           8.9282   -2.5000    0.0000 C.2     1  UNL1       -0.0555
     25 C          25.3827    4.0000    0.0000 C.3     1  UNL1       -0.0061
     26 C           2.0000   -3.5000    0.0000 C.3     1  UNL1       -0.0061
     27 C          20.1865   -1.0000    0.0000 C.2     1  UNL1       -0.0503
     28 C           9.7942   -3.0000    0.0000 C.2     1  UNL1       -0.0503
     29 C          20.1865   -0.0000    0.0000 C.3     1  UNL1       -0.0397
     30 C           9.7942   -4.0000    0.0000 C.3     1  UNL1       -0.0397
     31 C          19.3205   -1.5000    0.0000 C.2     1  UNL1       -0.0588
     32 C          10.6603   -2.5000    0.0000 C.2     1  UNL1       -0.0588
     33 C          18.4545   -1.0000    0.0000 C.2     1  UNL1       -0.0613
     34 C          11.5263   -3.0000    0.0000 C.2     1  UNL1       -0.0613
     35 C          17.5885   -1.5000    0.0000 C.2     1  UNL1       -0.0588
     36 C          12.3923   -2.5000    0.0000 C.2     1  UNL1       -0.0588
     37 C          16.7224   -1.0000    0.0000 C.2     1  UNL1       -0.0504
     38 C          13.2583   -3.0000    0.0000 C.2     1  UNL1       -0.0504
     39 C          15.8564   -1.5000    0.0000 C.2     1  UNL1       -0.0588
     40 C          14.1244   -2.5000    0.0000 C.2     1  UNL1       -0.0588
     41 C          16.7224    0.0000    0.0000 C.3     1  UNL1       -0.0397
     42 C          13.2583   -4.0000    0.0000 C.3     1  UNL1       -0.0397
     43 C          15.8564   -2.5000    0.0000 C.2     1  UNL1       -0.0615
     44 C          14.9904   -3.0000    0.0000 C.2     1  UNL1       -0.0615
     45 H          23.8627    0.4174    0.0000 H       1  UNL1        0.0275
     46 H          24.2612    1.1077    0.0000 H       1  UNL1        0.0275
     47 H           5.0656   -3.9750    0.0000 H       1  UNL1        0.0275
     48 H           5.8626   -3.9750    0.0000 H       1  UNL1        0.0275
     49 H          23.4386    2.5826    0.0000 H       1  UNL1        0.0270
     50 H          23.0401    1.8923    0.0000 H       1  UNL1        0.0270
     51 H           4.9966   -2.5250    0.0000 H       1  UNL1        0.0270
     52 H           4.1996   -2.5250    0.0000 H       1  UNL1        0.0270
     53 H          22.8215    1.6760    0.0000 H       1  UNL1        0.0239
     54 H          21.9746    1.9030    0.0000 H       1  UNL1        0.0239
     55 H          21.7477    1.0560    0.0000 H       1  UNL1        0.0239
     56 H          22.7477   -0.6760    0.0000 H       1  UNL1        0.0239
     57 H          23.5946   -0.9030    0.0000 H       1  UNL1        0.0239
     58 H          23.8215   -0.0560    0.0000 H       1  UNL1        0.0239
     59 H           6.2932   -4.1760    0.0000 H       1  UNL1        0.0239
     60 H           7.1401   -4.4030    0.0000 H       1  UNL1        0.0239
     61 H           7.3671   -3.5560    0.0000 H       1  UNL1        0.0239
     62 H           6.3671   -1.8240    0.0000 H       1  UNL1        0.0239
     63 H           5.5201   -1.5970    0.0000 H       1  UNL1        0.0239
     64 H           5.2932   -2.4440    0.0000 H       1  UNL1        0.0239
     65 H          24.7287    1.9174    0.0000 H       1  UNL1        0.0341
     66 H          25.1272    2.6077    0.0000 H       1  UNL1        0.0341
     67 H           3.3335   -3.9750    0.0000 H       1  UNL1        0.0341
     68 H           4.1306   -3.9750    0.0000 H       1  UNL1        0.0341
     69 H          22.4555   -1.3100    0.0000 H       1  UNL1        0.0653
     70 H           8.0622   -3.6200    0.0000 H       1  UNL1        0.0653
     71 H          21.0526   -2.1200    0.0000 H       1  UNL1        0.0621
     72 H           8.9282   -1.8800    0.0000 H       1  UNL1        0.0621
     73 H          25.6927    3.4631    0.0000 H       1  UNL1        0.0306
     74 H          25.9196    4.3100    0.0000 H       1  UNL1        0.0306
     75 H          25.0727    4.5369    0.0000 H       1  UNL1        0.0306
     76 H           1.6900   -2.9631    0.0000 H       1  UNL1        0.0306
     77 H           1.4631   -3.8100    0.0000 H       1  UNL1        0.0306
     78 H           2.3100   -4.0369    0.0000 H       1  UNL1        0.0306
     79 H          20.8065   -0.0000    0.0000 H       1  UNL1        0.0278
     80 H          20.1865    0.6200    0.0000 H       1  UNL1        0.0278
     81 H          19.5665   -0.0000    0.0000 H       1  UNL1        0.0278
     82 H           9.1742   -4.0000    0.0000 H       1  UNL1        0.0278
     83 H           9.7942   -4.6200    0.0000 H       1  UNL1        0.0278
     84 H          10.4142   -4.0000    0.0000 H       1  UNL1        0.0278
     85 H          19.3205   -2.1200    0.0000 H       1  UNL1        0.0620
     86 H          10.6603   -1.8800    0.0000 H       1  UNL1        0.0620
     87 H          18.4545   -0.3800    0.0000 H       1  UNL1        0.0618
     88 H          11.5263   -3.6200    0.0000 H       1  UNL1        0.0618
     89 H          17.5885   -2.1200    0.0000 H       1  UNL1        0.0620
     90 H          12.3923   -1.8800    0.0000 H       1  UNL1        0.0620
     91 H          15.3195   -1.1900    0.0000 H       1  UNL1        0.0620
     92 H          14.1244   -1.8800    0.0000 H       1  UNL1        0.0620
     93 H          17.3424    0.0000    0.0000 H       1  UNL1        0.0278
     94 H          16.7224    0.6200    0.0000 H       1  UNL1        0.0278
     95 H          16.1024    0.0000    0.0000 H       1  UNL1        0.0278
     96 H          12.6383   -4.0000    0.0000 H       1  UNL1        0.0278
     97 H          13.2583   -4.6200    0.0000 H       1  UNL1        0.0278
     98 H          13.8783   -4.0000    0.0000 H       1  UNL1        0.0278
     99 H          16.3933   -2.8100    0.0000 H       1  UNL1        0.0618
    100 H          14.9904   -3.6200    0.0000 H       1  UNL1        0.0618
@<TRIPOS>BOND
     1     1    15    2
     2     2    16    2
     3     3    21    2
     4     4    22    2
     5     5     7    1
     6     5    11    1
     7     5    12    1
     8     5    15    1
     9     6     8    1
    10     6    13    1
    11     6    14    1
    12     6    16    1
    13     7     9    1
    14     7    45    1
    15     7    46    1
    16     8    10    1
    17     8    47    1
    18     8    48    1
    19     9    17    1
    20     9    49    1
    21     9    50    1
    22    10    18    1
    23    10    51    1
    24    10    52    1
    25    11    53    1
    26    11    54    1
    27    11    55    1
    28    12    56    1
    29    12    57    1
    30    12    58    1
    31    13    62    1
    32    13    63    1
    33    13    64    1
    34    14    59    1
    35    14    60    1
    36    14    61    1
    37    15    19    1
    38    16    20    1
    39    17    21    1
    40    17    65    1
    41    17    66    1
    42    18    22    1
    43    18    67    1
    44    18    68    1
    45    19    23    2
    46    19    69    1
    47    20    24    2
    48    20    70    1
    49    21    25    1
    50    22    26    1
    51    23    27    1
    52    23    71    1
    53    24    28    1
    54    24    72    1
    55    25    73    1
    56    25    74    1
    57    25    75    1
    58    26    76    1
    59    26    77    1
    60    26    78    1
    61    27    29    1
    62    27    31    2
    63    28    30    1
    64    28    32    2
    65    29    79    1
    66    29    80    1
    67    29    81    1
    68    30    82    1
    69    30    83    1
    70    30    84    1
    71    31    33    1
    72    31    85    1
    73    32    34    1
    74    32    86    1
    75    33    35    2
    76    33    87    1
    77    34    36    2
    78    34    88    1
    79    35    37    1
    80    35    89    1
    81    36    38    1
    82    36    90    1
    83    37    39    2
    84    37    41    1
    85    38    40    2
    86    38    42    1
    87    39    43    1
    88    39    91    1
    89    40    44    1
    90    40    92    1
    91    41    93    1
    92    41    94    1
    93    41    95    1
    94    42    96    1
    95    42    97    1
    96    42    98    1
    97    43    44    2
    98    43    99    1
    99    44   100    1
