@<TRIPOS>MOLECULE
IMPHY006497
 26 25 0 0 0
SMALL
GASTEIGER

@<TRIPOS>ATOM
      1 O           7.1962   -1.6550    0.0000 O.3     1  UNL1       -0.3947
      2 C           4.5981    0.8450    0.0000 C.3     1  UNL1       -0.0165
      3 C           6.3301   -0.1550    0.0000 C.3     1  UNL1       -0.0115
      4 C           5.4641    1.3450    0.0000 C.2     1  UNL1       -0.0841
      5 C           6.3301    0.8450    0.0000 C.2     1  UNL1       -0.0855
      6 C           3.7320    1.3450    0.0000 C.2     1  UNL1       -0.0842
      7 C           2.8660   -0.1550    0.0000 C.3     1  UNL1       -0.0376
      8 C           2.8660    0.8450    0.0000 C.2     1  UNL1       -0.0879
      9 C           7.1962   -0.6550    0.0000 C.3     1  UNL1        0.0476
     10 C           2.0000   -0.6550    0.0000 C.3     1  UNL1       -0.0618
     11 H           4.1996    0.3701    0.0000 H       1  UNL1        0.0350
     12 H           4.9966    0.3701    0.0000 H       1  UNL1        0.0350
     13 H           5.7196   -0.0473    0.0000 H       1  UNL1        0.0329
     14 H           6.1181   -0.7376    0.0000 H       1  UNL1        0.0329
     15 H           5.4641    1.9650    0.0000 H       1  UNL1        0.0572
     16 H           6.8671    1.1550    0.0000 H       1  UNL1        0.0570
     17 H           3.0781   -0.7376    0.0000 H       1  UNL1        0.0305
     18 H           3.4766   -0.0473    0.0000 H       1  UNL1        0.0305
     19 H           3.7320    1.9650    0.0000 H       1  UNL1        0.0572
     20 H           2.3291    1.1550    0.0000 H       1  UNL1        0.0569
     21 H           7.8067   -0.7627    0.0000 H       1  UNL1        0.0560
     22 H           7.4082   -0.0724    0.0000 H       1  UNL1        0.0560
     23 H           1.6900   -0.1181    0.0000 H       1  UNL1        0.0233
     24 H           1.4631   -0.9650    0.0000 H       1  UNL1        0.0233
     25 H           2.3100   -1.1919    0.0000 H       1  UNL1        0.0233
     26 H           7.7331   -1.9650    0.0000 H       1  UNL1        0.2094
@<TRIPOS>BOND
     1     1     9    1
     2     1    26    1
     3     2     4    1
     4     2     6    1
     5     2    11    1
     6     2    12    1
     7     3     5    1
     8     3     9    1
     9     3    13    1
    10     3    14    1
    11     4     5    2
    12     4    15    1
    13     5    16    1
    14     6     8    2
    15     6    19    1
    16     7     8    1
    17     7    10    1
    18     7    17    1
    19     7    18    1
    20     8    20    1
    21     9    21    1
    22     9    22    1
    23    10    23    1
    24    10    24    1
    25    10    25    1
