@<TRIPOS>MOLECULE
IMPHY016169
 26 27 0 0 0
SMALL
GASTEIGER

@<TRIPOS>ATOM
      1 C           3.7320   -0.5000    0.0000 C.3     1  UNL1       -0.0345
      2 C           3.7320    0.5000    0.0000 C.3     1  UNL1       -0.0201
      3 C           2.8660   -1.0000    0.0000 C.3     1  UNL1       -0.0497
      4 C           2.8660    1.0000    0.0000 C.3     1  UNL1       -0.0465
      5 C           4.6260   -1.0347    0.0000 C.3     1  UNL1       -0.0462
      6 C           2.0000   -0.5000    0.0000 C.3     1  UNL1       -0.0528
      7 C           2.0000    0.5000    0.0000 C.3     1  UNL1       -0.0525
      8 C           4.6260    1.0347    0.0000 C.2     1  UNL1       -0.0846
      9 C           5.5321   -0.5208    0.0000 C.3     1  UNL1       -0.0345
     10 C           5.5321    0.5208    0.0000 C.2     1  UNL1       -0.0877
     11 H           3.7273   -1.1200    0.0000 H       1  UNL1        0.0306
     12 H           3.7273    1.1200    0.0000 H       1  UNL1        0.0346
     13 H           2.4675   -1.4750    0.0000 H       1  UNL1        0.0268
     14 H           3.2646   -1.4750    0.0000 H       1  UNL1        0.0268
     15 H           3.2646    1.4750    0.0000 H       1  UNL1        0.0271
     16 H           2.4675    1.4750    0.0000 H       1  UNL1        0.0271
     17 H           4.2214   -1.5044    0.0000 H       1  UNL1        0.0271
     18 H           5.0196   -1.5137    0.0000 H       1  UNL1        0.0271
     19 H           1.3894   -0.3923    0.0000 H       1  UNL1        0.0265
     20 H           1.7880   -1.0826    0.0000 H       1  UNL1        0.0265
     21 H           1.7880    1.0826    0.0000 H       1  UNL1        0.0265
     22 H           1.3894    0.3923    0.0000 H       1  UNL1        0.0265
     23 H           4.6188    1.6546    0.0000 H       1  UNL1        0.0572
     24 H           5.7411   -1.1045    0.0000 H       1  UNL1        0.0307
     25 H           6.1429   -0.4147    0.0000 H       1  UNL1        0.0307
     26 H           6.0678    0.8329    0.0000 H       1  UNL1        0.0569
@<TRIPOS>BOND
     1     1     2    1
     2     1     3    1
     3     1     5    1
     4     1    11    1
     5     2     4    1
     6     2     8    1
     7     2    12    1
     8     3     6    1
     9     3    13    1
    10     3    14    1
    11     4     7    1
    12     4    15    1
    13     4    16    1
    14     5     9    1
    15     5    17    1
    16     5    18    1
    17     6     7    1
    18     6    19    1
    19     6    20    1
    20     7    21    1
    21     7    22    1
    22     8    10    2
    23     8    23    1
    24     9    10    1
    25     9    24    1
    26     9    25    1
    27    10    26    1
