@<TRIPOS>MOLECULE
IMPHY001718
 68 72 0 0 0
SMALL
GASTEIGER

@<TRIPOS>ATOM
      1 O           8.5991   -1.4108    0.0000 O.3     1  UNL1       -0.3313
      2 O           6.0010   -1.9108    0.0000 O.3     1  UNL1       -0.3461
      3 O          10.3312   -1.4108    0.0000 O.3     1  UNL1       -0.4603
      4 O           6.8671   -3.4108    0.0000 O.3     1  UNL1       -0.3865
      5 O           5.1350   -0.4108    0.0000 O.3     1  UNL1       -0.3461
      6 O           8.5991   -4.4108    0.0000 O.3     1  UNL1       -0.3864
      7 O          10.3312   -3.4108    0.0000 O.3     1  UNL1       -0.3829
      8 O           4.2690   -2.9108    0.0000 O.3     1  UNL1       -0.3841
      9 O           2.5369   -1.9108    0.0000 O.3     1  UNL1       -0.3864
     10 O           2.5369    0.0892    0.0000 O.3     1  UNL1       -0.3869
     11 O           8.5849    1.6683    0.0000 O.3     1  UNL1       -0.5056
     12 O           7.6991    0.1268    0.0000 O.3     1  UNL1       -0.3902
     13 O          12.9512    1.1483    0.0000 O.2     1  UNL1       -0.2866
     14 O           9.4948    3.1617    0.0000 O.2     1  UNL1       -0.2865
     15 C           7.7331   -1.9108    0.0000 C.3     1  UNL1        0.1144
     16 C           7.7331   -2.9108    0.0000 C.3     1  UNL1        0.1120
     17 C           8.5991   -3.4108    0.0000 C.3     1  UNL1        0.1152
     18 C           9.4651   -2.9108    0.0000 C.3     1  UNL1        0.1454
     19 C           9.4651   -1.9108    0.0000 C.3     1  UNL1        0.2308
     20 C           6.8671   -1.4108    0.0000 C.3     1  UNL1        0.0796
     21 C           5.1350   -1.4108    0.0000 C.3     1  UNL1        0.1876
     22 C           4.2690   -1.9108    0.0000 C.3     1  UNL1        0.1341
     23 C           3.4030   -1.4108    0.0000 C.3     1  UNL1        0.1137
     24 C           3.4030   -0.4108    0.0000 C.3     1  UNL1        0.1069
     25 C           4.2690    0.0892    0.0000 C.3     1  UNL1        0.0792
     26 C          10.3312   -0.4108    0.0000 C.ar    1  UNL1        0.1335
     27 C           9.4311    0.1134    0.0000 C.ar    1  UNL1        0.0616
     28 C          11.2312    0.1134    0.0000 C.ar    1  UNL1       -0.0077
     29 C          11.2192    1.1550    0.0000 C.ar    1  UNL1        0.0401
     30 C          10.3551    1.6583    0.0000 C.ar    1  UNL1        0.0750
     31 C           9.4431    1.1550    0.0000 C.ar    1  UNL1        0.1372
     32 C           8.5612   -0.3799    0.0000 C.3     1  UNL1        0.0762
     33 C          12.0871    1.6517    0.0000 C.2     1  UNL1        0.1947
     34 C          10.3589    2.6583    0.0000 C.2     1  UNL1        0.1980
     35 C          12.0910    2.6517    0.0000 C.ar    1  UNL1        0.0331
     36 C          11.2269    3.1550    0.0000 C.ar    1  UNL1        0.0332
     37 C          13.0029    3.1550    0.0000 C.ar    1  UNL1       -0.0502
     38 C          11.2148    4.1966    0.0000 C.ar    1  UNL1       -0.0502
     39 C          13.0150    4.1966    0.0000 C.ar    1  UNL1       -0.0610
     40 C          12.1149    4.7208    0.0000 C.ar    1  UNL1       -0.0610
     41 H           7.7331   -1.2908    0.0000 H       1  UNL1        0.0647
     42 H           7.7331   -3.5308    0.0000 H       1  UNL1        0.0647
     43 H           9.1360   -3.7208    0.0000 H       1  UNL1        0.0648
     44 H          10.0021   -2.6008    0.0000 H       1  UNL1        0.0683
     45 H           9.4651   -1.2908    0.0000 H       1  UNL1        0.1084
     46 H           7.2656   -0.9359    0.0000 H       1  UNL1        0.0587
     47 H           6.4685   -0.9359    0.0000 H       1  UNL1        0.0587
     48 H           5.1350   -2.0308    0.0000 H       1  UNL1        0.0937
     49 H           3.7320   -2.2208    0.0000 H       1  UNL1        0.0671
     50 H           2.8660   -1.1008    0.0000 H       1  UNL1        0.0647
     51 H           3.4030    0.2092    0.0000 H       1  UNL1        0.0643
     52 H           4.6675    0.5641    0.0000 H       1  UNL1        0.0587
     53 H           3.8705    0.5641    0.0000 H       1  UNL1        0.0587
     54 H           6.8671   -4.0308    0.0000 H       1  UNL1        0.2100
     55 H           8.0622   -4.7208    0.0000 H       1  UNL1        0.2100
     56 H          10.3312   -4.0308    0.0000 H       1  UNL1        0.2102
     57 H           3.7320   -3.2208    0.0000 H       1  UNL1        0.2101
     58 H           2.0000   -1.6008    0.0000 H       1  UNL1        0.2100
     59 H           2.5369    0.7092    0.0000 H       1  UNL1        0.2100
     60 H          11.7705   -0.1924    0.0000 H       1  UNL1        0.0661
     61 H           8.1591   -0.8517    0.0000 H       1  UNL1        0.0609
     62 H           8.9561   -0.8579    0.0000 H       1  UNL1        0.0609
     63 H          13.5350    2.8368    0.0000 H       1  UNL1        0.0625
     64 H          10.6755    4.5024    0.0000 H       1  UNL1        0.0625
     65 H           8.5945    2.2882    0.0000 H       1  UNL1        0.2922
     66 H           7.7039    0.7468    0.0000 H       1  UNL1        0.2099
     67 H          13.5543    4.5024    0.0000 H       1  UNL1        0.0618
     68 H          12.1149    5.3408    0.0000 H       1  UNL1        0.0618
@<TRIPOS>BOND
     1     1    15    1
     2     1    19    1
     3     2    20    1
     4    21     2    1
     5    19     3    1
     6     3    26    1
     7    16     4    1
     8     4    54    1
     9     5    21    1
    10     5    25    1
    11    17     6    1
    12     6    55    1
    13    18     7    1
    14     7    56    1
    15    22     8    1
    16     8    57    1
    17    23     9    1
    18     9    58    1
    19    24    10    1
    20    10    59    1
    21    11    31    1
    22    11    65    1
    23    12    32    1
    24    12    66    1
    25    13    33    2
    26    14    34    2
    27    15    16    1
    28    15    20    1
    29    15    41    1
    30    16    17    1
    31    16    42    1
    32    17    18    1
    33    17    43    1
    34    18    19    1
    35    18    44    1
    36    19    45    1
    37    20    46    1
    38    20    47    1
    39    21    22    1
    40    21    48    1
    41    22    23    1
    42    22    49    1
    43    23    24    1
    44    23    50    1
    45    24    25    1
    46    24    51    1
    47    25    52    1
    48    25    53    1
    49    26    27   ar
    50    26    28   ar
    51    27    31   ar
    52    27    32    1
    53    28    29   ar
    54    28    60    1
    55    29    30   ar
    56    29    33    1
    57    30    31   ar
    58    30    34    1
    59    32    61    1
    60    32    62    1
    61    33    35    1
    62    34    36    1
    63    35    36   ar
    64    35    37   ar
    65    36    38   ar
    66    37    39   ar
    67    37    63    1
    68    38    40   ar
    69    38    64    1
    70    39    40   ar
    71    39    67    1
    72    40    68    1
