@<TRIPOS>MOLECULE
IMPHY002080
 38 40 0 0 0
SMALL
GASTEIGER

@<TRIPOS>ATOM
      1 O           7.8805   -1.0720    0.0000 O.3     1  UNL1       -0.4575
      2 O           2.5381    0.7569    0.0000 O.3     1  UNL1       -0.3875
      3 O           9.4641   -0.2673    0.0000 O.2     1  UNL1       -0.2453
      4 C           5.2022   -0.7673    0.0000 C.3     1  UNL1       -0.0220
      5 C           5.2022    0.2327    0.0000 C.3     1  UNL1       -0.0116
      6 C           6.0682   -1.2673    0.0000 C.3     1  UNL1       -0.0091
      7 C           6.0682    0.7327    0.0000 C.3     1  UNL1       -0.0355
      8 C           6.9343    0.2327    0.0000 C.3     1  UNL1        0.0280
      9 C           6.9343   -0.7673    0.0000 C.3     1  UNL1        0.1109
     10 C           4.3083   -1.3020    0.0000 C.3     1  UNL1       -0.0443
     11 C           4.3083    0.7674    0.0000 C.2     1  UNL1       -0.0449
     12 C           3.4022   -0.7881    0.0000 C.3     1  UNL1       -0.0225
     13 C           5.2022   -1.7673    0.0000 C.3     1  UNL1       -0.0589
     14 C           3.4022    0.2535    0.0000 C.3     1  UNL1        0.0763
     15 C           7.8805    0.5374    0.0000 C.2     1  UNL1        0.0361
     16 C           8.4641   -0.2673    0.0000 C.2     1  UNL1        0.3353
     17 C           4.3198    1.7673    0.0000 C.2     1  UNL1       -0.0967
     18 C           8.1912    1.4880    0.0000 C.2     1  UNL1       -0.0883
     19 H           5.2088    1.0827    0.0000 H       1  UNL1        0.0352
     20 H           5.6697   -1.7422    0.0000 H       1  UNL1        0.0306
     21 H           6.4668   -1.7422    0.0000 H       1  UNL1        0.0306
     22 H           6.4668    1.2076    0.0000 H       1  UNL1        0.0278
     23 H           5.6697    1.2076    0.0000 H       1  UNL1        0.0278
     24 H           7.0242    1.0779    0.0000 H       1  UNL1        0.0387
     25 H           7.0242   -1.6125    0.0000 H       1  UNL1        0.0740
     26 H           3.9147   -1.7810    0.0000 H       1  UNL1        0.0272
     27 H           4.7129   -1.7718    0.0000 H       1  UNL1        0.0272
     28 H           2.7914   -0.6820    0.0000 H       1  UNL1        0.0293
     29 H           3.1932   -1.3718    0.0000 H       1  UNL1        0.0293
     30 H           4.5822   -1.7673    0.0000 H       1  UNL1        0.0235
     31 H           5.2022   -2.3873    0.0000 H       1  UNL1        0.0235
     32 H           5.8222   -1.7673    0.0000 H       1  UNL1        0.0235
     33 H           2.8647   -0.0554    0.0000 H       1  UNL1        0.0640
     34 H           4.8603    2.0711    0.0000 H       1  UNL1        0.0535
     35 H           3.7865    2.0835    0.0000 H       1  UNL1        0.0535
     36 H           2.0000    0.4489    0.0000 H       1  UNL1        0.2102
     37 H           8.7978    1.6158    0.0000 H       1  UNL1        0.0540
     38 H           7.7771    1.9494    0.0000 H       1  UNL1        0.0540
@<TRIPOS>BOND
     1     1     9    1
     2     1    16    1
     3    14     2    1
     4     2    36    1
     5     3    16    2
     6     4     5    1
     7     4     6    1
     8     4    10    1
     9     4    13    1
    10     5     7    1
    11     5    11    1
    12     5    19    1
    13     6     9    1
    14     6    20    1
    15     6    21    1
    16     7     8    1
    17     7    22    1
    18     7    23    1
    19     8     9    1
    20     8    15    1
    21     8    24    1
    22     9    25    1
    23    10    12    1
    24    10    26    1
    25    10    27    1
    26    11    14    1
    27    11    17    2
    28    12    14    1
    29    12    28    1
    30    12    29    1
    31    13    30    1
    32    13    31    1
    33    13    32    1
    34    14    33    1
    35    15    16    1
    36    15    18    2
    37    17    34    1
    38    17    35    1
    39    18    37    1
    40    18    38    1
