@<TRIPOS>MOLECULE
IMPHY003560
 167 166 0 0 0
SMALL
GASTEIGER

@<TRIPOS>ATOM
      1 O          20.1865    7.2500    0.0000 O.3     1  UNL1       -0.4544
      2 O          18.4545    5.2500    0.0000 O.3     1  UNL1       -0.4608
      3 O          17.5885    6.7500    0.0000 O.3     1  UNL1       -0.4608
      4 O          21.0526    5.7500    0.0000 O.2     1  UNL1       -0.2508
      5 O          19.3205    3.7500    0.0000 O.2     1  UNL1       -0.2509
      6 O          16.7224    8.2500    0.0000 O.2     1  UNL1       -0.2509
      7 C          30.5788    7.2500    0.0000 C.3     1  UNL1       -0.0531
      8 C          31.4449    6.7500    0.0000 C.3     1  UNL1       -0.0531
      9 C           7.1962    6.7500    0.0000 C.3     1  UNL1       -0.0531
     10 C          13.2583   -3.7500    0.0000 C.3     1  UNL1       -0.0531
     11 C          13.2583   -4.7500    0.0000 C.3     1  UNL1       -0.0531
     12 C           6.3301    7.2500    0.0000 C.3     1  UNL1       -0.0531
     13 C          29.7128    6.7500    0.0000 C.3     1  UNL1       -0.0530
     14 C           8.0622    7.2500    0.0000 C.3     1  UNL1       -0.0530
     15 C          14.1244   -3.2500    0.0000 C.3     1  UNL1       -0.0530
     16 C          32.3109    7.2500    0.0000 C.3     1  UNL1       -0.0531
     17 C          12.3923   -5.2500    0.0000 C.3     1  UNL1       -0.0531
     18 C           5.4641    6.7500    0.0000 C.3     1  UNL1       -0.0531
     19 C          28.8468    7.2500    0.0000 C.3     1  UNL1       -0.0528
     20 C           8.9282    6.7500    0.0000 C.3     1  UNL1       -0.0528
     21 C          14.1244   -2.2500    0.0000 C.3     1  UNL1       -0.0528
     22 C          33.1769    6.7500    0.0000 C.3     1  UNL1       -0.0531
     23 C          12.3923   -6.2500    0.0000 C.3     1  UNL1       -0.0531
     24 C           4.5981    7.2500    0.0000 C.3     1  UNL1       -0.0531
     25 C          27.9808    6.7500    0.0000 C.3     1  UNL1       -0.0496
     26 C          14.9904   -1.7500    0.0000 C.3     1  UNL1       -0.0496
     27 C           9.7942    7.2500    0.0000 C.3     1  UNL1       -0.0496
     28 C          34.0429    7.2500    0.0000 C.3     1  UNL1       -0.0533
     29 C           3.7320    6.7500    0.0000 C.3     1  UNL1       -0.0533
     30 C          11.5263   -6.7500    0.0000 C.3     1  UNL1       -0.0533
     31 C          27.1147    7.2500    0.0000 C.3     1  UNL1       -0.0348
     32 C          10.6603    6.7500    0.0000 C.3     1  UNL1       -0.0348
     33 C          14.9904   -0.7500    0.0000 C.3     1  UNL1       -0.0348
     34 C          34.9090    6.7500    0.0000 C.3     1  UNL1       -0.0559
     35 C          11.5263   -7.7500    0.0000 C.3     1  UNL1       -0.0559
     36 C           2.8660    7.2500    0.0000 C.3     1  UNL1       -0.0559
     37 C          26.2487    6.7500    0.0000 C.2     1  UNL1       -0.0879
     38 C          11.5263    7.2500    0.0000 C.2     1  UNL1       -0.0879
     39 C          15.8564   -0.2500    0.0000 C.2     1  UNL1       -0.0879
     40 C          35.7750    7.2500    0.0000 C.3     1  UNL1       -0.0653
     41 C           2.0000    6.7500    0.0000 C.3     1  UNL1       -0.0653
     42 C          10.6603   -8.2500    0.0000 C.3     1  UNL1       -0.0653
     43 C          25.3827    7.2500    0.0000 C.2     1  UNL1       -0.0879
     44 C          24.5167    6.7500    0.0000 C.3     1  UNL1       -0.0347
     45 C          15.8564    0.7500    0.0000 C.2     1  UNL1       -0.0879
     46 C          12.3923    6.7500    0.0000 C.2     1  UNL1       -0.0879
     47 C          16.7224    1.2500    0.0000 C.3     1  UNL1       -0.0347
     48 C          13.2583    7.2500    0.0000 C.3     1  UNL1       -0.0347
     49 C          23.6506    7.2500    0.0000 C.3     1  UNL1       -0.0491
     50 C          14.1244    6.7500    0.0000 C.3     1  UNL1       -0.0491
     51 C          16.7224    2.2500    0.0000 C.3     1  UNL1       -0.0491
     52 C          22.7846    6.7500    0.0000 C.3     1  UNL1       -0.0427
     53 C          14.9904    7.2500    0.0000 C.3     1  UNL1       -0.0427
     54 C          17.5885    2.7500    0.0000 C.3     1  UNL1       -0.0427
     55 C          21.9186    7.2500    0.0000 C.3     1  UNL1        0.0450
     56 C          15.8564    6.7500    0.0000 C.3     1  UNL1        0.0449
     57 C          17.5885    3.7500    0.0000 C.3     1  UNL1        0.0449
     58 C          19.3205    6.7500    0.0000 C.3     1  UNL1        0.1706
     59 C          18.4545    7.2500    0.0000 C.3     1  UNL1        0.1325
     60 C          19.3205    5.7500    0.0000 C.3     1  UNL1        0.1325
     61 C          21.0526    6.7500    0.0000 C.2     1  UNL1        0.3075
     62 C          16.7224    7.2500    0.0000 C.2     1  UNL1        0.3072
     63 C          18.4545    4.2500    0.0000 C.2     1  UNL1        0.3072
     64 H          30.9774    7.7250    0.0000 H       1  UNL1        0.0265
     65 H          30.1803    7.7250    0.0000 H       1  UNL1        0.0265
     66 H          31.0463    6.2750    0.0000 H       1  UNL1        0.0265
     67 H          31.8434    6.2750    0.0000 H       1  UNL1        0.0265
     68 H          13.0463   -3.1674    0.0000 H       1  UNL1        0.0265
     69 H          12.6477   -3.8577    0.0000 H       1  UNL1        0.0265
     70 H           6.7976    6.2750    0.0000 H       1  UNL1        0.0265
     71 H           7.5947    6.2750    0.0000 H       1  UNL1        0.0265
     72 H          13.4704   -5.3326    0.0000 H       1  UNL1        0.0265
     73 H          13.8689   -4.6423    0.0000 H       1  UNL1        0.0265
     74 H           6.7287    7.7250    0.0000 H       1  UNL1        0.0265
     75 H           5.9316    7.7250    0.0000 H       1  UNL1        0.0265
     76 H          29.3143    6.2750    0.0000 H       1  UNL1        0.0265
     77 H          30.1113    6.2750    0.0000 H       1  UNL1        0.0265
     78 H           8.4607    7.7250    0.0000 H       1  UNL1        0.0265
     79 H           7.6636    7.7250    0.0000 H       1  UNL1        0.0265
     80 H          14.3364   -3.8326    0.0000 H       1  UNL1        0.0265
     81 H          14.7349   -3.1423    0.0000 H       1  UNL1        0.0265
     82 H          32.7094    7.7250    0.0000 H       1  UNL1        0.0265
     83 H          31.9124    7.7250    0.0000 H       1  UNL1        0.0265
     84 H          12.1803   -4.6674    0.0000 H       1  UNL1        0.0265
     85 H          11.7817   -5.3577    0.0000 H       1  UNL1        0.0265
     86 H           5.0656    6.2750    0.0000 H       1  UNL1        0.0265
     87 H           5.8626    6.2750    0.0000 H       1  UNL1        0.0265
     88 H          29.2453    7.7250    0.0000 H       1  UNL1        0.0265
     89 H          28.4483    7.7250    0.0000 H       1  UNL1        0.0265
     90 H          13.9123   -1.6674    0.0000 H       1  UNL1        0.0265
     91 H          13.5138   -2.3577    0.0000 H       1  UNL1        0.0265
     92 H           8.5297    6.2750    0.0000 H       1  UNL1        0.0265
     93 H           9.3267    6.2750    0.0000 H       1  UNL1        0.0265
     94 H          32.7784    6.2750    0.0000 H       1  UNL1        0.0265
     95 H          33.5754    6.2750    0.0000 H       1  UNL1        0.0265
     96 H          12.6044   -6.8326    0.0000 H       1  UNL1        0.0265
     97 H          13.0029   -6.1423    0.0000 H       1  UNL1        0.0265
     98 H           4.9966    7.7250    0.0000 H       1  UNL1        0.0265
     99 H           4.1996    7.7250    0.0000 H       1  UNL1        0.0265
    100 H          27.5822    6.2750    0.0000 H       1  UNL1        0.0268
    101 H          28.3793    6.2750    0.0000 H       1  UNL1        0.0268
    102 H          10.1928    7.7250    0.0000 H       1  UNL1        0.0268
    103 H           9.3957    7.7250    0.0000 H       1  UNL1        0.0268
    104 H          15.2024   -2.3326    0.0000 H       1  UNL1        0.0268
    105 H          15.6010   -1.6423    0.0000 H       1  UNL1        0.0268
    106 H          34.4415    7.7250    0.0000 H       1  UNL1        0.0265
    107 H          33.6444    7.7250    0.0000 H       1  UNL1        0.0265
    108 H          11.3142   -6.1674    0.0000 H       1  UNL1        0.0265
    109 H          10.9157   -6.8577    0.0000 H       1  UNL1        0.0265
    110 H           3.3335    6.2750    0.0000 H       1  UNL1        0.0265
    111 H           4.1306    6.2750    0.0000 H       1  UNL1        0.0265
    112 H          27.5133    7.7250    0.0000 H       1  UNL1        0.0307
    113 H          26.7162    7.7250    0.0000 H       1  UNL1        0.0307
    114 H          10.2617    6.2750    0.0000 H       1  UNL1        0.0307
    115 H          11.0588    6.2750    0.0000 H       1  UNL1        0.0307
    116 H          14.7783   -0.1674    0.0000 H       1  UNL1        0.0307
    117 H          14.3798   -0.8577    0.0000 H       1  UNL1        0.0307
    118 H          34.5104    6.2750    0.0000 H       1  UNL1        0.0263
    119 H          35.3075    6.2750    0.0000 H       1  UNL1        0.0263
    120 H          11.7383   -8.3326    0.0000 H       1  UNL1        0.0263
    121 H          12.1369   -7.6423    0.0000 H       1  UNL1        0.0263
    122 H           3.2646    7.7250    0.0000 H       1  UNL1        0.0263
    123 H           2.4675    7.7250    0.0000 H       1  UNL1        0.0263
    124 H          26.2487    6.1300    0.0000 H       1  UNL1        0.0569
    125 H          16.3933   -0.5600    0.0000 H       1  UNL1        0.0569
    126 H          11.5263    7.8700    0.0000 H       1  UNL1        0.0569
    127 H          36.0850    6.7131    0.0000 H       1  UNL1        0.0230
    128 H          36.3119    7.5600    0.0000 H       1  UNL1        0.0230
    129 H          35.4650    7.7869    0.0000 H       1  UNL1        0.0230
    130 H           1.6900    7.2869    0.0000 H       1  UNL1        0.0230
    131 H           1.4631    6.4400    0.0000 H       1  UNL1        0.0230
    132 H           2.3100    6.2131    0.0000 H       1  UNL1        0.0230
    133 H          10.3503   -7.7131    0.0000 H       1  UNL1        0.0230
    134 H          10.1233   -8.5600    0.0000 H       1  UNL1        0.0230
    135 H          10.9703   -8.7869    0.0000 H       1  UNL1        0.0230
    136 H          25.3827    7.8700    0.0000 H       1  UNL1        0.0569
    137 H          24.1181    6.2750    0.0000 H       1  UNL1        0.0307
    138 H          24.9152    6.2750    0.0000 H       1  UNL1        0.0307
    139 H          12.3923    6.1300    0.0000 H       1  UNL1        0.0569
    140 H          15.3195    1.0600    0.0000 H       1  UNL1        0.0569
    141 H          13.6569    7.7250    0.0000 H       1  UNL1        0.0307
    142 H          12.8598    7.7250    0.0000 H       1  UNL1        0.0307
    143 H          16.9345    0.6674    0.0000 H       1  UNL1        0.0307
    144 H          17.3330    1.3577    0.0000 H       1  UNL1        0.0307
    145 H          24.0492    7.7250    0.0000 H       1  UNL1        0.0268
    146 H          23.2521    7.7250    0.0000 H       1  UNL1        0.0268
    147 H          16.5104    2.8326    0.0000 H       1  UNL1        0.0268
    148 H          16.1119    2.1423    0.0000 H       1  UNL1        0.0268
    149 H          13.7258    6.2750    0.0000 H       1  UNL1        0.0268
    150 H          14.5229    6.2750    0.0000 H       1  UNL1        0.0268
    151 H          22.3861    6.2750    0.0000 H       1  UNL1        0.0270
    152 H          23.1831    6.2750    0.0000 H       1  UNL1        0.0270
    153 H          15.3889    7.7250    0.0000 H       1  UNL1        0.0270
    154 H          14.5919    7.7250    0.0000 H       1  UNL1        0.0270
    155 H          17.8005    2.1674    0.0000 H       1  UNL1        0.0270
    156 H          18.1990    2.8577    0.0000 H       1  UNL1        0.0270
    157 H          22.3171    7.7250    0.0000 H       1  UNL1        0.0377
    158 H          21.5201    7.7250    0.0000 H       1  UNL1        0.0377
    159 H          17.3764    4.3326    0.0000 H       1  UNL1        0.0377
    160 H          16.9779    3.6423    0.0000 H       1  UNL1        0.0377
    161 H          15.4579    6.2750    0.0000 H       1  UNL1        0.0377
    162 H          16.2549    6.2750    0.0000 H       1  UNL1        0.0377
    163 H          19.8574    6.4400    0.0000 H       1  UNL1        0.0803
    164 H          18.8530    7.7250    0.0000 H       1  UNL1        0.0736
    165 H          18.0560    7.7250    0.0000 H       1  UNL1        0.0736
    166 H          19.5326    5.1674    0.0000 H       1  UNL1        0.0736
    167 H          19.9311    5.8577    0.0000 H       1  UNL1        0.0736
@<TRIPOS>BOND
     1     1    58    1
     2     1    61    1
     3     2    60    1
     4     2    63    1
     5     3    59    1
     6     3    62    1
     7     4    61    2
     8     5    63    2
     9     6    62    2
    10     7     8    1
    11     7    13    1
    12     7    64    1
    13     7    65    1
    14     8    16    1
    15     8    66    1
    16     8    67    1
    17     9    12    1
    18     9    14    1
    19     9    70    1
    20     9    71    1
    21    10    11    1
    22    10    15    1
    23    10    68    1
    24    10    69    1
    25    11    17    1
    26    11    72    1
    27    11    73    1
    28    12    18    1
    29    12    74    1
    30    12    75    1
    31    13    19    1
    32    13    76    1
    33    13    77    1
    34    14    20    1
    35    14    78    1
    36    14    79    1
    37    15    21    1
    38    15    80    1
    39    15    81    1
    40    16    22    1
    41    16    82    1
    42    16    83    1
    43    17    23    1
    44    17    84    1
    45    17    85    1
    46    18    24    1
    47    18    86    1
    48    18    87    1
    49    19    25    1
    50    19    88    1
    51    19    89    1
    52    20    27    1
    53    20    92    1
    54    20    93    1
    55    21    26    1
    56    21    90    1
    57    21    91    1
    58    22    28    1
    59    22    94    1
    60    22    95    1
    61    23    30    1
    62    23    96    1
    63    23    97    1
    64    24    29    1
    65    24    98    1
    66    24    99    1
    67    25    31    1
    68    25   100    1
    69    25   101    1
    70    26    33    1
    71    26   104    1
    72    26   105    1
    73    27    32    1
    74    27   102    1
    75    27   103    1
    76    28    34    1
    77    28   106    1
    78    28   107    1
    79    29    36    1
    80    29   110    1
    81    29   111    1
    82    30    35    1
    83    30   108    1
    84    30   109    1
    85    31    37    1
    86    31   112    1
    87    31   113    1
    88    32    38    1
    89    32   114    1
    90    32   115    1
    91    33    39    1
    92    33   116    1
    93    33   117    1
    94    34    40    1
    95    34   118    1
    96    34   119    1
    97    35    42    1
    98    35   120    1
    99    35   121    1
   100    36    41    1
   101    36   122    1
   102    36   123    1
   103    37    43    2
   104    37   124    1
   105    38    46    2
   106    38   126    1
   107    39    45    2
   108    39   125    1
   109    40   127    1
   110    40   128    1
   111    40   129    1
   112    41   130    1
   113    41   131    1
   114    41   132    1
   115    42   133    1
   116    42   134    1
   117    42   135    1
   118    43    44    1
   119    43   136    1
   120    44    49    1
   121    44   137    1
   122    44   138    1
   123    45    47    1
   124    45   140    1
   125    46    48    1
   126    46   139    1
   127    47    51    1
   128    47   143    1
   129    47   144    1
   130    48    50    1
   131    48   141    1
   132    48   142    1
   133    49    52    1
   134    49   145    1
   135    49   146    1
   136    50    53    1
   137    50   149    1
   138    50   150    1
   139    51    54    1
   140    51   147    1
   141    51   148    1
   142    52    55    1
   143    52   151    1
   144    52   152    1
   145    53    56    1
   146    53   153    1
   147    53   154    1
   148    54    57    1
   149    54   155    1
   150    54   156    1
   151    55    61    1
   152    55   157    1
   153    55   158    1
   154    56    62    1
   155    56   161    1
   156    56   162    1
   157    57    63    1
   158    57   159    1
   159    57   160    1
   160    58    59    1
   161    58    60    1
   162    58   163    1
   163    59   164    1
   164    59   165    1
   165    60   166    1
   166    60   167    1
