@<TRIPOS>MOLECULE
IMPHY017447
 44 45 0 0 0
SMALL
GASTEIGER

@<TRIPOS>ATOM
      1 O           3.7320   -0.7673    0.0000 O.3     1  UNL1       -0.4645
      2 O           2.0000   -0.7673    0.0000 O.2     1  UNL1       -0.2512
      3 C           7.2241    0.1980    0.0000 C.3     1  UNL1       -0.0136
      4 C           6.3301    0.7327    0.0000 C.2     1  UNL1       -0.0643
      5 C           4.5981    0.7327    0.0000 C.3     1  UNL1       -0.0001
      6 C           4.5981    1.7327    0.0000 C.3     1  UNL1       -0.0340
      7 C           6.3301    1.7327    0.0000 C.2     1  UNL1       -0.0695
      8 C           5.4641    0.2327    0.0000 C.3     1  UNL1       -0.0248
      9 C           5.4641    2.2327    0.0000 C.3     1  UNL1       -0.0285
     10 C           8.1301    0.7119    0.0000 C.3     1  UNL1       -0.0439
     11 C           7.2241    2.2673    0.0000 C.3     1  UNL1       -0.0314
     12 C           8.1301    1.7535    0.0000 C.3     1  UNL1       -0.0486
     13 C           7.7140   -0.6737    0.0000 C.3     1  UNL1       -0.0561
     14 C           6.7141   -0.6622    0.0000 C.3     1  UNL1       -0.0561
     15 C           3.7320    0.2327    0.0000 C.3     1  UNL1        0.0958
     16 C           3.7320    2.2327    0.0000 C.3     1  UNL1       -0.0618
     17 C           2.8660   -1.2673    0.0000 C.2     1  UNL1        0.3040
     18 C           2.8660   -2.2673    0.0000 C.3     1  UNL1        0.0332
     19 H           4.5981    0.1127    0.0000 H       1  UNL1        0.0339
     20 H           4.5981    2.3527    0.0000 H       1  UNL1        0.0305
     21 H           5.0656   -0.2423    0.0000 H       1  UNL1        0.0314
     22 H           5.8626   -0.2423    0.0000 H       1  UNL1        0.0314
     23 H           5.8626    2.7076    0.0000 H       1  UNL1        0.0313
     24 H           5.0656    2.7076    0.0000 H       1  UNL1        0.0313
     25 H           8.3392    0.1282    0.0000 H       1  UNL1        0.0274
     26 H           8.7410    0.8179    0.0000 H       1  UNL1        0.0274
     27 H           7.6177    2.7464    0.0000 H       1  UNL1        0.0310
     28 H           6.8195    2.7371    0.0000 H       1  UNL1        0.0310
     29 H           8.7410    1.6474    0.0000 H       1  UNL1        0.0269
     30 H           8.3392    2.3372    0.0000 H       1  UNL1        0.0269
     31 H           7.1735   -0.9775    0.0000 H       1  UNL1        0.0238
     32 H           8.0178   -1.2142    0.0000 H       1  UNL1        0.0238
     33 H           8.2545   -0.3700    0.0000 H       1  UNL1        0.0238
     34 H           6.1808   -0.3460    0.0000 H       1  UNL1        0.0238
     35 H           6.3979   -1.1955    0.0000 H       1  UNL1        0.0238
     36 H           7.2474   -0.9784    0.0000 H       1  UNL1        0.0238
     37 H           3.5200    0.8153    0.0000 H       1  UNL1        0.0700
     38 H           3.1215    0.1250    0.0000 H       1  UNL1        0.0700
     39 H           4.0420    2.7696    0.0000 H       1  UNL1        0.0233
     40 H           3.1951    2.5427    0.0000 H       1  UNL1        0.0233
     41 H           3.4220    1.6957    0.0000 H       1  UNL1        0.0233
     42 H           2.2460   -2.2673    0.0000 H       1  UNL1        0.0342
     43 H           2.8660   -2.8873    0.0000 H       1  UNL1        0.0342
     44 H           3.4860   -2.2673    0.0000 H       1  UNL1        0.0342
@<TRIPOS>BOND
     1     1    15    1
     2     1    17    1
     3     2    17    2
     4     3     4    1
     5     3    10    1
     6     3    13    1
     7     3    14    1
     8     4     7    2
     9     4     8    1
    10     5     6    1
    11     5     8    1
    12     5    15    1
    13     5    19    1
    14     6     9    1
    15     6    16    1
    16     6    20    1
    17     7     9    1
    18     7    11    1
    19     8    21    1
    20     8    22    1
    21     9    23    1
    22     9    24    1
    23    10    12    1
    24    10    25    1
    25    10    26    1
    26    11    12    1
    27    11    27    1
    28    11    28    1
    29    12    29    1
    30    12    30    1
    31    13    31    1
    32    13    32    1
    33    13    33    1
    34    14    34    1
    35    14    35    1
    36    14    36    1
    37    15    37    1
    38    15    38    1
    39    16    39    1
    40    16    40    1
    41    16    41    1
    42    17    18    1
    43    18    42    1
    44    18    43    1
    45    18    44    1
