@<TRIPOS>MOLECULE
IMPHY005274
 71 75 0 0 0
SMALL
GASTEIGER

@<TRIPOS>ATOM
      1 O           7.4149   -2.6732    0.0000 O.3     1  UNL1       -0.4580
      2 O           5.6489   -3.7110    0.0000 O.3     1  UNL1       -0.3878
      3 O           2.0000   -2.6941    0.0000 O.2     1  UNL1       -0.2921
      4 O           9.6033    2.9209    0.0000 O.3     1  UNL1       -0.4282
      5 O          10.4096    1.3317    0.0000 O.3     1  UNL1       -0.3543
      6 O           6.5662   -4.1831    0.0000 O.2     1  UNL1       -0.2512
      7 O           8.3454    4.1831    0.0000 O.2     1  UNL1       -0.2455
      8 C           6.5271   -1.1418    0.0000 C.3     1  UNL1        0.0325
      9 C           5.6610   -0.6418    0.0000 C.3     1  UNL1       -0.0192
     10 C           4.7510   -1.1486    0.0000 C.3     1  UNL1       -0.0038
     11 C           4.7430   -2.1902    0.0000 C.3     1  UNL1        0.0098
     12 C           7.3931    0.3582    0.0000 C.3     1  UNL1       -0.0034
     13 C           7.3931   -0.6418    0.0000 C.2     1  UNL1       -0.0572
     14 C           6.5431   -2.1833    0.0000 C.3     1  UNL1        0.1383
     15 C           5.6610    0.3582    0.0000 C.3     1  UNL1       -0.0477
     16 C           5.6451   -2.7110    0.0000 C.3     1  UNL1        0.0974
     17 C           6.5271    0.8582    0.0000 C.3     1  UNL1       -0.0430
     18 C           8.3393    0.6630    0.0000 C.3     1  UNL1       -0.0011
     19 C           3.8076   -2.7399    0.0000 C.3     1  UNL1        0.0334
     20 C           7.3931   -1.6418    0.0000 C.3     1  UNL1       -0.0521
     21 C           4.7587   -0.1486    0.0000 C.3     1  UNL1       -0.0554
     22 C           3.8242   -0.5845    0.0000 C.2     1  UNL1       -0.0741
     23 C           8.3393   -0.9465    0.0000 C.2     1  UNL1       -0.0830
     24 C           8.9229   -0.1417    0.0000 C.3     1  UNL1       -0.0269
     25 C           7.3931    1.3582    0.0000 C.3     1  UNL1       -0.0553
     26 C           2.8680   -2.1974    0.0000 C.2     1  UNL1        0.1618
     27 C           8.6500    1.6135    0.0000 C.2     1  UNL1        0.0086
     28 C           2.8763   -1.1125    0.0000 C.2     1  UNL1       -0.0220
     29 C           3.3109   -3.6079    0.0000 C.3     1  UNL1       -0.0524
     30 C           4.3109   -3.6040    0.0000 C.3     1  UNL1       -0.0524
     31 C           9.6016    1.9209    0.0000 C.3     1  UNL1        0.2262
     32 C           8.0636    2.4235    0.0000 C.2     1  UNL1        0.0280
     33 C           7.4264   -3.6731    0.0000 C.2     1  UNL1        0.3043
     34 C           8.6528    3.2315    0.0000 C.2     1  UNL1        0.3345
     35 C           8.2982   -4.1631    0.0000 C.3     1  UNL1        0.0332
     36 H           6.3972   -0.2168    0.0000 H       1  UNL1        0.0319
     37 H           4.7463   -3.0402    0.0000 H       1  UNL1        0.0345
     38 H           6.5491   -2.8032    0.0000 H       1  UNL1        0.0769
     39 H           5.4490    0.9409    0.0000 H       1  UNL1        0.0269
     40 H           5.0504    0.2506    0.0000 H       1  UNL1        0.0269
     41 H           5.1087   -3.0220    0.0000 H       1  UNL1        0.0634
     42 H           6.9256    1.3332    0.0000 H       1  UNL1        0.0274
     43 H           6.1285    1.3332    0.0000 H       1  UNL1        0.0274
     44 H           8.9518    0.7592    0.0000 H       1  UNL1        0.0359
     45 H           7.0831   -2.1787    0.0000 H       1  UNL1        0.0239
     46 H           7.9300   -1.9518    0.0000 H       1  UNL1        0.0239
     47 H           7.7031   -1.1048    0.0000 H       1  UNL1        0.0239
     48 H           5.3787   -0.1534    0.0000 H       1  UNL1        0.0238
     49 H           4.7635    0.4714    0.0000 H       1  UNL1        0.0238
     50 H           4.1388   -0.1438    0.0000 H       1  UNL1        0.0238
     51 H           3.8361    0.0354    0.0000 H       1  UNL1        0.0579
     52 H           8.5319   -1.5358    0.0000 H       1  UNL1        0.0572
     53 H           9.3838   -0.5565    0.0000 H       1  UNL1        0.0313
     54 H           9.3838    0.2730    0.0000 H       1  UNL1        0.0313
     55 H           8.0131    1.3582    0.0000 H       1  UNL1        0.0238
     56 H           7.3931    1.9782    0.0000 H       1  UNL1        0.0238
     57 H           6.7731    1.3582    0.0000 H       1  UNL1        0.0238
     58 H           2.3430   -0.7963    0.0000 H       1  UNL1        0.0649
     59 H           2.7728   -3.2999    0.0000 H       1  UNL1        0.0239
     60 H           3.0030   -4.1460    0.0000 H       1  UNL1        0.0239
     61 H           3.8490   -3.9158    0.0000 H       1  UNL1        0.0239
     62 H           3.7752   -3.9161    0.0000 H       1  UNL1        0.0239
     63 H           4.6230   -4.1398    0.0000 H       1  UNL1        0.0239
     64 H           4.8466   -3.2920    0.0000 H       1  UNL1        0.0239
     65 H           5.1132   -4.0231    0.0000 H       1  UNL1        0.2100
     66 H           9.5035    1.3087    0.0000 H       1  UNL1        0.1108
     67 H           7.4436    2.4246    0.0000 H       1  UNL1        0.0690
     68 H           7.9944   -4.7036    0.0000 H       1  UNL1        0.0342
     69 H           8.8387   -4.4669    0.0000 H       1  UNL1        0.0342
     70 H           8.6020   -3.6226    0.0000 H       1  UNL1        0.0342
     71 H          10.9764    1.5829    0.0000 H       1  UNL1        0.2139
@<TRIPOS>BOND
     1    14     1    1
     2     1    33    1
     3    16     2    1
     4     2    65    1
     5     3    26    2
     6     4    31    1
     7     4    34    1
     8     5    31    1
     9     5    71    1
    10     6    33    2
    11     7    34    2
    12     8     9    1
    13     8    13    1
    14     8    14    1
    15     8    20    1
    16     9    10    1
    17     9    15    1
    18     9    36    1
    19    10    11    1
    20    10    21    1
    21    10    22    1
    22    11    16    1
    23    11    19    1
    24    11    37    1
    25    12    13    1
    26    12    17    1
    27    12    18    1
    28    12    25    1
    29    13    23    2
    30    14    16    1
    31    14    38    1
    32    15    17    1
    33    15    39    1
    34    15    40    1
    35    16    41    1
    36    17    42    1
    37    17    43    1
    38    18    24    1
    39    18    27    1
    40    18    44    1
    41    19    26    1
    42    19    29    1
    43    19    30    1
    44    20    45    1
    45    20    46    1
    46    20    47    1
    47    21    48    1
    48    21    49    1
    49    21    50    1
    50    22    28    2
    51    22    51    1
    52    23    24    1
    53    23    52    1
    54    24    53    1
    55    24    54    1
    56    25    55    1
    57    25    56    1
    58    25    57    1
    59    26    28    1
    60    27    31    1
    61    27    32    2
    62    28    58    1
    63    29    59    1
    64    29    60    1
    65    29    61    1
    66    30    62    1
    67    30    63    1
    68    30    64    1
    69    31    66    1
    70    32    34    1
    71    32    67    1
    72    33    35    1
    73    35    68    1
    74    35    69    1
    75    35    70    1
