@<TRIPOS>MOLECULE
IMPHY016421
 25 25 0 0 0
SMALL
GASTEIGER

@<TRIPOS>ATOM
      1 O           2.6200    1.5000    0.0000 O.3     1  UNL1       -0.3843
      2 O           3.1200   -2.3660    0.0000 O.2     1  UNL1       -0.2927
      3 C           3.1200    0.6340    0.0000 C.3     1  UNL1        0.0872
      4 C           3.6200    1.5000    0.0000 C.3     1  UNL1       -0.0142
      5 C           2.2540    0.1340    0.0000 C.3     1  UNL1       -0.0131
      6 C           2.2540   -0.8660    0.0000 C.3     1  UNL1        0.0128
      7 C           3.9860    0.1340    0.0000 C.2     1  UNL1       -0.0493
      8 C           4.6200    1.5000    0.0000 C.3     1  UNL1       -0.0598
      9 C           3.1200    2.3660    0.0000 C.3     1  UNL1       -0.0598
     10 C           3.1200   -1.3660    0.0000 C.2     1  UNL1        0.1560
     11 C           3.9860   -0.8660    0.0000 C.2     1  UNL1       -0.0205
     12 H           3.9300    0.9631    0.0000 H       1  UNL1        0.0326
     13 H           2.0419    0.7166    0.0000 H       1  UNL1        0.0300
     14 H           1.6434    0.0263    0.0000 H       1  UNL1        0.0300
     15 H           1.6434   -0.7584    0.0000 H       1  UNL1        0.0346
     16 H           2.0419   -1.4486    0.0000 H       1  UNL1        0.0346
     17 H           4.5230    0.4440    0.0000 H       1  UNL1        0.0601
     18 H           4.6200    0.8800    0.0000 H       1  UNL1        0.0233
     19 H           5.2400    1.5000    0.0000 H       1  UNL1        0.0233
     20 H           4.6200    2.1200    0.0000 H       1  UNL1        0.0233
     21 H           3.6569    2.6760    0.0000 H       1  UNL1        0.0233
     22 H           2.8100    2.9030    0.0000 H       1  UNL1        0.0233
     23 H           2.5831    2.0560    0.0000 H       1  UNL1        0.0233
     24 H           4.5230   -1.1760    0.0000 H       1  UNL1        0.0650
     25 H           2.0000    1.5000    0.0000 H       1  UNL1        0.2106
@<TRIPOS>BOND
     1     1     3    1
     2     1    25    1
     3     2    10    2
     4     3     4    1
     5     3     5    1
     6     3     7    1
     7     4     8    1
     8     4     9    1
     9     4    12    1
    10     5     6    1
    11     5    13    1
    12     5    14    1
    13     6    10    1
    14     6    15    1
    15     6    16    1
    16     7    11    2
    17     7    17    1
    18     8    18    1
    19     8    19    1
    20     8    20    1
    21     9    21    1
    22     9    22    1
    23     9    23    1
    24    10    11    1
    25    11    24    1
