@<TRIPOS>MOLECULE
IMPHY001449
 53 56 0 0 0
SMALL
GASTEIGER

@<TRIPOS>ATOM
      1 O           8.6159   -2.8875    0.0000 O.co2   1  UNL1       -0.7750
      2 O           9.0501    1.5242    0.0000 O.3     1  UNL1       -0.4910
      3 O           5.5103    1.5106    0.0000 O.3     1  UNL1       -0.5028
      4 O           7.2762    2.5484    0.0000 O.3     1  UNL1       -0.4885
      5 O           2.8680   -2.0450    0.0000 O.3     1  UNL1       -0.4914
      6 O           2.8680    0.0033    0.0000 O.3     1  UNL1       -0.4914
      7 N           8.1223   -2.0178    0.0000 N.3     1  UNL1        0.2209
      8 C           7.2641   -1.5209    0.0000 C.3     1  UNL1        0.0091
      9 C           7.2641   -0.5209    0.0000 C.ar    1  UNL1        0.0186
     10 C           8.9878   -1.5336    0.0000 C.3     1  UNL1       -0.0282
     11 C           6.3981   -2.0209    0.0000 C.3     1  UNL1        0.0205
     12 C           8.1741   -0.0140    0.0000 C.ar    1  UNL1        0.0122
     13 C           9.0134   -0.5423    0.0000 C.3     1  UNL1        0.0167
     14 C           6.3981   -0.0209    0.0000 C.ar    1  UNL1        0.0366
     15 C           5.5320   -1.5209    0.0000 C.ar    1  UNL1       -0.0302
     16 C           7.6159   -2.8801    0.0000 C.3     1  UNL1       -0.0433
     17 C           5.5320   -0.5209    0.0000 C.ar    1  UNL1       -0.0067
     18 C           8.1821    1.0276    0.0000 C.ar    1  UNL1        0.1690
     19 C           6.3820    1.0206    0.0000 C.ar    1  UNL1        0.1705
     20 C           7.2800    1.5484    0.0000 C.ar    1  UNL1        0.2042
     21 C           4.6381   -2.0556    0.0000 C.ar    1  UNL1       -0.0123
     22 C           4.6381    0.0138    0.0000 C.ar    1  UNL1       -0.0082
     23 C           3.7320   -1.5417    0.0000 C.ar    1  UNL1        0.1618
     24 C           3.7320   -0.5001    0.0000 C.ar    1  UNL1        0.1621
     25 C           9.0539    2.5242    0.0000 C.3     1  UNL1        0.0790
     26 C           6.4082    3.0450    0.0000 C.3     1  UNL1        0.0791
     27 C           2.8718   -3.0450    0.0000 C.3     1  UNL1        0.0790
     28 C           2.0000   -0.4934    0.0000 C.3     1  UNL1        0.0790
     29 H           7.2636   -2.3709    0.0000 H       1  UNL1        0.0907
     30 H           9.1895   -2.1199    0.0000 H       1  UNL1        0.0817
     31 H           9.6006   -1.4393    0.0000 H       1  UNL1        0.0817
     32 H           5.9995   -2.4958    0.0000 H       1  UNL1        0.0372
     33 H           6.7966   -2.4958    0.0000 H       1  UNL1        0.0372
     34 H           9.6205   -0.6682    0.0000 H       1  UNL1        0.0366
     35 H           9.2452    0.0328    0.0000 H       1  UNL1        0.0366
     36 H           7.0813   -2.5662    0.0000 H       1  UNL1        0.0777
     37 H           7.3020   -3.4147    0.0000 H       1  UNL1        0.0777
     38 H           8.1506   -3.1941    0.0000 H       1  UNL1        0.0777
     39 H           4.6453   -2.6755    0.0000 H       1  UNL1        0.0658
     40 H           4.6453    0.6337    0.0000 H       1  UNL1        0.0661
     41 H           5.5031    2.1305    0.0000 H       1  UNL1        0.2923
     42 H           9.6739    2.5218    0.0000 H       1  UNL1        0.0660
     43 H           9.0563    3.1442    0.0000 H       1  UNL1        0.0660
     44 H           8.4339    2.5266    0.0000 H       1  UNL1        0.0660
     45 H           6.7162    3.5832    0.0000 H       1  UNL1        0.0660
     46 H           5.8701    3.3530    0.0000 H       1  UNL1        0.0660
     47 H           6.1003    2.5069    0.0000 H       1  UNL1        0.0660
     48 H           2.2518   -3.0474    0.0000 H       1  UNL1        0.0660
     49 H           2.8742   -3.6650    0.0000 H       1  UNL1        0.0660
     50 H           3.4918   -3.0426    0.0000 H       1  UNL1        0.0660
     51 H           1.6921    0.0447    0.0000 H       1  UNL1        0.0660
     52 H           1.4619   -0.8013    0.0000 H       1  UNL1        0.0660
     53 H           2.3079   -1.0315    0.0000 H       1  UNL1        0.0660
@<TRIPOS>UNITY_ATOM_ATTR
1 1
charge -1
7 1
charge 1
@<TRIPOS>BOND
     1     1     7    1
     2     2    18    1
     3     2    25    1
     4     3    19    1
     5     3    41    1
     6     4    20    1
     7     4    26    1
     8     5    23    1
     9     5    27    1
    10     6    24    1
    11     6    28    1
    12     7     8    1
    13     7    10    1
    14     7    16    1
    15     8     9    1
    16     8    11    1
    17     8    29    1
    18     9    12   ar
    19     9    14   ar
    20    10    13    1
    21    10    30    1
    22    10    31    1
    23    11    15    1
    24    11    32    1
    25    11    33    1
    26    12    13    1
    27    12    18   ar
    28    13    34    1
    29    13    35    1
    30    14    17    1
    31    14    19   ar
    32    15    17   ar
    33    15    21   ar
    34    16    36    1
    35    16    37    1
    36    16    38    1
    37    17    22   ar
    38    18    20   ar
    39    19    20   ar
    40    21    23   ar
    41    21    39    1
    42    22    24   ar
    43    22    40    1
    44    23    24   ar
    45    25    42    1
    46    25    43    1
    47    25    44    1
    48    26    45    1
    49    26    46    1
    50    26    47    1
    51    27    48    1
    52    27    49    1
    53    27    50    1
    54    28    51    1
    55    28    52    1
    56    28    53    1
