@<TRIPOS>MOLECULE
IMPHY009463
 50 50 0 0 0
SMALL
GASTEIGER

@<TRIPOS>ATOM
      1 S           7.7331   -3.0950    0.0000 S.O2    1  UNL1        0.0830
      2 O           7.7331   -4.0950    0.0000 O.3     1  UNL1       -0.2537
      3 O           8.7331   -3.0950    0.0000 O.2     1  UNL1       -0.1471
      4 O           6.7331   -3.0950    0.0000 O.2     1  UNL1       -0.1471
      5 O           7.7331   -0.0950    0.0000 O.2     1  UNL1       -0.2973
      6 O           4.2690    3.9050    0.0000 O.3     1  UNL1       -0.4915
      7 O           2.5369    2.9050    0.0000 O.3     1  UNL1       -0.5033
      8 C           7.7331   -2.0950    0.0000 C.3     1  UNL1        0.1102
      9 C           8.5991   -1.5950    0.0000 C.3     1  UNL1       -0.0279
     10 C           9.4651   -2.0950    0.0000 C.3     1  UNL1       -0.0512
     11 C           6.8671   -1.5950    0.0000 C.3     1  UNL1        0.0305
     12 C          10.3312   -1.5950    0.0000 C.3     1  UNL1       -0.0532
     13 C           6.8671   -0.5950    0.0000 C.2     1  UNL1        0.1356
     14 C           6.0010   -0.0950    0.0000 C.3     1  UNL1        0.0099
     15 C          11.1972   -2.0950    0.0000 C.3     1  UNL1       -0.0559
     16 C           6.0010    0.9050    0.0000 C.3     1  UNL1       -0.0209
     17 C          12.0632   -1.5950    0.0000 C.3     1  UNL1       -0.0653
     18 C           5.1350    1.4050    0.0000 C.ar    1  UNL1       -0.0433
     19 C           5.1350    2.4050    0.0000 C.ar    1  UNL1       -0.0131
     20 C           4.2690    0.9050    0.0000 C.ar    1  UNL1       -0.0549
     21 C           4.2690    2.9050    0.0000 C.ar    1  UNL1        0.1615
     22 C           3.4030    1.4050    0.0000 C.ar    1  UNL1       -0.0163
     23 C           3.4030    2.4050    0.0000 C.ar    1  UNL1        0.1585
     24 C           5.1350    4.4050    0.0000 C.3     1  UNL1        0.0790
     25 H           8.4692   -2.5200    0.0000 H       1  UNL1        0.0566
     26 H           8.9976   -1.1200    0.0000 H       1  UNL1        0.0284
     27 H           8.2006   -1.1200    0.0000 H       1  UNL1        0.0284
     28 H           6.2565   -1.4873    0.0000 H       1  UNL1        0.0361
     29 H           6.6550   -2.1776    0.0000 H       1  UNL1        0.0361
     30 H           9.0666   -2.5700    0.0000 H       1  UNL1        0.0266
     31 H           9.8637   -2.5700    0.0000 H       1  UNL1        0.0266
     32 H          10.7297   -1.1200    0.0000 H       1  UNL1        0.0265
     33 H           9.9326   -1.1200    0.0000 H       1  UNL1        0.0265
     34 H           5.3905    0.0127    0.0000 H       1  UNL1        0.0345
     35 H           5.7890   -0.6776    0.0000 H       1  UNL1        0.0345
     36 H          10.7987   -2.5700    0.0000 H       1  UNL1        0.0263
     37 H          11.5957   -2.5700    0.0000 H       1  UNL1        0.0263
     38 H           6.6116    0.7973    0.0000 H       1  UNL1        0.0317
     39 H           6.2131    1.4876    0.0000 H       1  UNL1        0.0317
     40 H          12.3732   -2.1319    0.0000 H       1  UNL1        0.0230
     41 H          12.6002   -1.2850    0.0000 H       1  UNL1        0.0230
     42 H          11.7532   -1.0581    0.0000 H       1  UNL1        0.0230
     43 H           7.1962   -4.4050    0.0000 H       1  UNL1        0.2445
     44 H           5.6720    2.7150    0.0000 H       1  UNL1        0.0658
     45 H           4.2690    0.2850    0.0000 H       1  UNL1        0.0621
     46 H           2.8660    1.0950    0.0000 H       1  UNL1        0.0655
     47 H           2.0000    2.5950    0.0000 H       1  UNL1        0.2923
     48 H           5.4450    3.8681    0.0000 H       1  UNL1        0.0660
     49 H           5.6720    4.7150    0.0000 H       1  UNL1        0.0660
     50 H           4.8250    4.9419    0.0000 H       1  UNL1        0.0660
@<TRIPOS>BOND
     1     1     2    1
     2     1     3    2
     3     1     4    2
     4     1     8    1
     5     2    43    1
     6     5    13    2
     7     6    21    1
     8     6    24    1
     9     7    23    1
    10     7    47    1
    11     8     9    1
    12     8    11    1
    13     8    25    1
    14     9    10    1
    15     9    26    1
    16     9    27    1
    17    10    12    1
    18    10    30    1
    19    10    31    1
    20    11    13    1
    21    11    28    1
    22    11    29    1
    23    12    15    1
    24    12    32    1
    25    12    33    1
    26    13    14    1
    27    14    16    1
    28    14    34    1
    29    14    35    1
    30    15    17    1
    31    15    36    1
    32    15    37    1
    33    16    18    1
    34    16    38    1
    35    16    39    1
    36    17    40    1
    37    17    41    1
    38    17    42    1
    39    18    19   ar
    40    18    20   ar
    41    19    21   ar
    42    19    44    1
    43    20    22   ar
    44    20    45    1
    45    21    23   ar
    46    22    23   ar
    47    22    46    1
    48    24    48    1
    49    24    49    1
    50    24    50    1
