@<TRIPOS>MOLECULE
IMPHY012828
 21 20 0 0 0
SMALL
GASTEIGER

@<TRIPOS>ATOM
      1 O           4.5981   -1.3450    0.0000 O.3     1  UNL1       -0.3849
      2 O           6.3301   -0.3450    0.0000 O.3     1  UNL1       -0.3849
      3 C           4.5981   -0.3450    0.0000 C.3     1  UNL1        0.1027
      4 C           5.4641    0.1550    0.0000 C.3     1  UNL1        0.1025
      5 C           3.7320    0.1550    0.0000 C.2     1  UNL1       -0.0573
      6 C           5.4641    1.1550    0.0000 C.2     1  UNL1       -0.0602
      7 C           2.8660   -0.3450    0.0000 C.2     1  UNL1       -0.0885
      8 C           2.0000    0.1550    0.0000 C.3     1  UNL1       -0.0467
      9 C           6.3301    1.6550    0.0000 C.2     1  UNL1       -0.1001
     10 H           5.1350   -0.6550    0.0000 H       1  UNL1        0.0667
     11 H           6.0010    0.4650    0.0000 H       1  UNL1        0.0667
     12 H           3.7320    0.7750    0.0000 H       1  UNL1        0.0595
     13 H           4.9272    1.4650    0.0000 H       1  UNL1        0.0593
     14 H           2.8660   -0.9650    0.0000 H       1  UNL1        0.0567
     15 H           5.1350   -1.6550    0.0000 H       1  UNL1        0.2103
     16 H           6.8671   -0.0350    0.0000 H       1  UNL1        0.2103
     17 H           2.3100    0.6919    0.0000 H       1  UNL1        0.0272
     18 H           1.4631    0.4650    0.0000 H       1  UNL1        0.0272
     19 H           1.6900   -0.3819    0.0000 H       1  UNL1        0.0272
     20 H           6.8671    1.3450    0.0000 H       1  UNL1        0.0533
     21 H           6.3301    2.2750    0.0000 H       1  UNL1        0.0533
@<TRIPOS>BOND
     1     1     3    1
     2     1    15    1
     3     2     4    1
     4     2    16    1
     5     3     4    1
     6     3     5    1
     7     3    10    1
     8     4     6    1
     9     4    11    1
    10     5     7    2
    11     5    12    1
    12     6     9    2
    13     6    13    1
    14     7     8    1
    15     7    14    1
    16     8    17    1
    17     8    18    1
    18     8    19    1
    19     9    20    1
    20     9    21    1
