@<TRIPOS>MOLECULE
IMPHY016870
 19 19 0 0 0
SMALL
GASTEIGER

@<TRIPOS>ATOM
      1 O           6.3301    0.3450    0.0000 O.3     1  UNL1       -0.4914
      2 O           4.5981    1.3450    0.0000 O.3     1  UNL1       -0.5028
      3 O           2.0000   -0.1550    0.0000 O.2     1  UNL1       -0.2956
      4 C           5.4641   -0.1550    0.0000 C.ar    1  UNL1        0.1620
      5 C           4.5981    0.3450    0.0000 C.ar    1  UNL1        0.1688
      6 C           3.7320   -0.1550    0.0000 C.ar    1  UNL1        0.0592
      7 C           5.4641   -1.1550    0.0000 C.ar    1  UNL1       -0.0163
      8 C           3.7320   -1.1550    0.0000 C.ar    1  UNL1       -0.0478
      9 C           4.5981   -1.6550    0.0000 C.ar    1  UNL1       -0.0574
     10 C           2.8660    0.3450    0.0000 C.2     1  UNL1        0.1538
     11 C           7.1962   -0.1550    0.0000 C.3     1  UNL1        0.0790
     12 H           6.0010   -1.4650    0.0000 H       1  UNL1        0.0655
     13 H           3.1951   -1.4650    0.0000 H       1  UNL1        0.0626
     14 H           4.5981   -2.2750    0.0000 H       1  UNL1        0.0619
     15 H           2.8660    0.9650    0.0000 H       1  UNL1        0.1083
     16 H           6.8862   -0.6919    0.0000 H       1  UNL1        0.0660
     17 H           7.7331   -0.4650    0.0000 H       1  UNL1        0.0660
     18 H           7.5062    0.3819    0.0000 H       1  UNL1        0.0660
     19 H           5.1350    1.6550    0.0000 H       1  UNL1        0.2923
@<TRIPOS>BOND
     1     1     4    1
     2     1    11    1
     3     2     5    1
     4     2    19    1
     5     3    10    2
     6     4     5   ar
     7     4     7   ar
     8     5     6   ar
     9     6     8   ar
    10     6    10    1
    11     7     9   ar
    12     7    12    1
    13     8     9   ar
    14     8    13    1
    15     9    14    1
    16    10    15    1
    17    11    16    1
    18    11    17    1
    19    11    18    1
