@<TRIPOS>MOLECULE
IMPHY016310
 24 23 0 0 0
SMALL
GASTEIGER

@<TRIPOS>ATOM
      1 O           3.7320   -1.0950    0.0000 O.3     1  UNL1       -0.3913
      2 C           3.7320   -0.0950    0.0000 C.3     1  UNL1        0.0599
      3 C           4.5981    0.4050    0.0000 C.3     1  UNL1       -0.0204
      4 C           2.8660    0.4050    0.0000 C.3     1  UNL1       -0.0204
      5 C           5.4641   -0.0950    0.0000 C.3     1  UNL1       -0.0603
      6 C           4.5981    1.4050    0.0000 C.3     1  UNL1       -0.0603
      7 C           2.0000   -0.0950    0.0000 C.3     1  UNL1       -0.0603
      8 C           2.8660    1.4050    0.0000 C.3     1  UNL1       -0.0603
      9 H           4.2690   -0.4050    0.0000 H       1  UNL1        0.0598
     10 H           5.1350    0.7150    0.0000 H       1  UNL1        0.0320
     11 H           2.8660   -0.2150    0.0000 H       1  UNL1        0.0320
     12 H           5.1541   -0.6319    0.0000 H       1  UNL1        0.0233
     13 H           6.0010   -0.4050    0.0000 H       1  UNL1        0.0233
     14 H           5.7741    0.4419    0.0000 H       1  UNL1        0.0233
     15 H           5.2181    1.4050    0.0000 H       1  UNL1        0.0233
     16 H           4.5981    2.0250    0.0000 H       1  UNL1        0.0233
     17 H           3.9781    1.4050    0.0000 H       1  UNL1        0.0233
     18 H           1.6900    0.4419    0.0000 H       1  UNL1        0.0233
     19 H           1.4631   -0.4050    0.0000 H       1  UNL1        0.0233
     20 H           2.3100   -0.6319    0.0000 H       1  UNL1        0.0233
     21 H           3.4860    1.4050    0.0000 H       1  UNL1        0.0233
     22 H           2.8660    2.0250    0.0000 H       1  UNL1        0.0233
     23 H           2.2460    1.4050    0.0000 H       1  UNL1        0.0233
     24 H           3.1951   -1.4050    0.0000 H       1  UNL1        0.2098
@<TRIPOS>BOND
     1     1     2    1
     2     1    24    1
     3     2     3    1
     4     2     4    1
     5     2     9    1
     6     3     5    1
     7     3     6    1
     8     3    10    1
     9     4     7    1
    10     4     8    1
    11     4    11    1
    12     5    12    1
    13     5    13    1
    14     5    14    1
    15     6    15    1
    16     6    16    1
    17     6    17    1
    18     7    18    1
    19     7    19    1
    20     7    20    1
    21     8    21    1
    22     8    22    1
    23     8    23    1
