@<TRIPOS>MOLECULE
IMPHY004765
 52 55 0 0 0
SMALL
GASTEIGER

@<TRIPOS>ATOM
      1 O           5.1350   -2.7856    0.0000 O.3     1  UNL1       -0.3313
      2 O           6.8671   -2.7856    0.0000 O.3     1  UNL1       -0.4535
      3 O           5.1350   -5.7857    0.0000 O.3     1  UNL1       -0.3864
      4 O           3.4030   -4.7857    0.0000 O.3     1  UNL1       -0.3865
      5 O           6.8671   -4.7857    0.0000 O.3     1  UNL1       -0.3829
      6 O           2.5369   -3.2856    0.0000 O.3     1  UNL1       -0.3924
      7 O           6.8510    1.2559    0.0000 O.2     1  UNL1       -0.4544
      8 O           8.5991   -1.7856    0.0000 O.3     1  UNL1       -0.5027
      9 O           5.1350   -1.7856    0.0000 O.3     1  UNL1       -0.5031
     10 O           9.5033   -0.2888    0.0000 O.2     1  UNL1       -0.2869
     11 O           7.7336    5.7836    0.0000 O.3     1  UNL1       -0.5068
     12 C           5.1350   -4.7857    0.0000 C.3     1  UNL1        0.1152
     13 C           4.2690   -4.2857    0.0000 C.3     1  UNL1        0.1120
     14 C           6.0010   -4.2857    0.0000 C.3     1  UNL1        0.1454
     15 C           4.2690   -3.2856    0.0000 C.3     1  UNL1        0.1140
     16 C           6.0010   -3.2856    0.0000 C.3     1  UNL1        0.2311
     17 C           3.4030   -2.7856    0.0000 C.3     1  UNL1        0.0731
     18 C           6.8671   -1.7856    0.0000 C.ar    1  UNL1        0.2072
     19 C           7.7331   -1.2856    0.0000 C.ar    1  UNL1        0.1769
     20 C           6.0010   -1.2856    0.0000 C.ar    1  UNL1        0.1658
     21 C           7.7331   -0.2856    0.0000 C.ar    1  UNL1        0.1091
     22 C           6.8671    0.2144    0.0000 C.ar    1  UNL1        0.1465
     23 C           6.0010   -0.2856    0.0000 C.ar    1  UNL1        0.0268
     24 C           8.6431    0.2212    0.0000 C.ar    1  UNL1        0.1967
     25 C           7.7490    1.7836    0.0000 C.ar    1  UNL1        0.1392
     26 C           8.6511    1.2628    0.0000 C.ar    1  UNL1        0.0288
     27 C           7.7452    2.7836    0.0000 C.ar    1  UNL1        0.0176
     28 C           8.6093    3.2869    0.0000 C.ar    1  UNL1       -0.0476
     29 C           6.8772    3.2803    0.0000 C.ar    1  UNL1       -0.0476
     30 C           8.6054    4.2869    0.0000 C.ar    1  UNL1       -0.0195
     31 C           6.8734    4.2802    0.0000 C.ar    1  UNL1       -0.0195
     32 C           7.7375    4.7836    0.0000 C.ar    1  UNL1        0.1169
     33 H           5.6720   -5.0956    0.0000 H       1  UNL1        0.0648
     34 H           4.2690   -4.9056    0.0000 H       1  UNL1        0.0647
     35 H           6.5380   -3.9756    0.0000 H       1  UNL1        0.0683
     36 H           4.2690   -2.6656    0.0000 H       1  UNL1        0.0647
     37 H           6.0010   -2.6656    0.0000 H       1  UNL1        0.1084
     38 H           3.8015   -2.3107    0.0000 H       1  UNL1        0.0584
     39 H           3.0044   -2.3107    0.0000 H       1  UNL1        0.0584
     40 H           4.5981   -6.0956    0.0000 H       1  UNL1        0.2100
     41 H           3.4030   -5.4056    0.0000 H       1  UNL1        0.2100
     42 H           6.8671   -5.4056    0.0000 H       1  UNL1        0.2102
     43 H           2.0000   -2.9756    0.0000 H       1  UNL1        0.2095
     44 H           5.4641    0.0244    0.0000 H       1  UNL1        0.0692
     45 H           9.1892    1.5707    0.0000 H       1  UNL1        0.0693
     46 H           8.5991   -2.4056    0.0000 H       1  UNL1        0.2923
     47 H           4.5981   -1.4756    0.0000 H       1  UNL1        0.2923
     48 H           9.1474    2.9790    0.0000 H       1  UNL1        0.0626
     49 H           6.3415    2.9682    0.0000 H       1  UNL1        0.0626
     50 H           9.1412    4.5990    0.0000 H       1  UNL1        0.0654
     51 H           6.3353    4.5882    0.0000 H       1  UNL1        0.0654
     52 H           8.2694    6.0956    0.0000 H       1  UNL1        0.2921
@<TRIPOS>BOND
     1     1    15    1
     2     1    16    1
     3    16     2    1
     4     2    18    1
     5    12     3    1
     6     3    40    1
     7    13     4    1
     8     4    41    1
     9     5    14    1
    10     5    42    1
    11     6    17    1
    12     6    43    1
    13     7    22   ar
    14     7    25   ar
    15     8    19    1
    16     8    46    1
    17     9    20    1
    18     9    47    1
    19    10    24    2
    20    11    32    1
    21    11    52    1
    22    12    13    1
    23    12    14    1
    24    12    33    1
    25    13    15    1
    26    13    34    1
    27    14    16    1
    28    14    35    1
    29    15    17    1
    30    15    36    1
    31    16    37    1
    32    17    38    1
    33    17    39    1
    34    18    19   ar
    35    18    20   ar
    36    19    21   ar
    37    20    23   ar
    38    21    22   ar
    39    21    24   ar
    40    22    23   ar
    41    23    44    1
    42    24    26   ar
    43    25    26   ar
    44    25    27    1
    45    26    45    1
    46    27    28   ar
    47    27    29   ar
    48    28    30   ar
    49    28    48    1
    50    29    31   ar
    51    29    49    1
    52    30    32   ar
    53    30    50    1
    54    31    32   ar
    55    31    51    1
