@<TRIPOS>MOLECULE
IMPHY012040
 28 28 0 0 0
SMALL
GASTEIGER

@<TRIPOS>ATOM
      1 O           4.5981   -0.1550    0.0000 O.3     1  UNL1       -0.4857
      2 O           4.5981    1.8450    0.0000 O.3     1  UNL1       -0.3861
      3 O           6.3301    2.8450    0.0000 O.3     1  UNL1       -0.3923
      4 O           2.8660   -1.1550    0.0000 O.3     1  UNL1       -0.4915
      5 C           5.4641    1.3450    0.0000 C.3     1  UNL1        0.1120
      6 C           5.4641    0.3450    0.0000 C.3     1  UNL1        0.1177
      7 C           6.3301    1.8450    0.0000 C.3     1  UNL1        0.0733
      8 C           4.5981   -1.1550    0.0000 C.ar    1  UNL1        0.1620
      9 C           3.7320   -1.6550    0.0000 C.ar    1  UNL1        0.1615
     10 C           5.4641   -1.6550    0.0000 C.ar    1  UNL1       -0.0163
     11 C           3.7320   -2.6550    0.0000 C.ar    1  UNL1       -0.0163
     12 C           5.4641   -2.6550    0.0000 C.ar    1  UNL1       -0.0581
     13 C           4.5981   -3.1550    0.0000 C.ar    1  UNL1       -0.0581
     14 C           2.0000   -1.6550    0.0000 C.3     1  UNL1        0.0790
     15 H           5.4641    1.9650    0.0000 H       1  UNL1        0.0650
     16 H           5.6762   -0.2376    0.0000 H       1  UNL1        0.0723
     17 H           6.0747    0.4527    0.0000 H       1  UNL1        0.0723
     18 H           6.5422    1.2624    0.0000 H       1  UNL1        0.0584
     19 H           6.9407    1.9527    0.0000 H       1  UNL1        0.0584
     20 H           6.0010   -1.3450    0.0000 H       1  UNL1        0.0655
     21 H           3.1951   -2.9650    0.0000 H       1  UNL1        0.0655
     22 H           4.5981    2.4650    0.0000 H       1  UNL1        0.2100
     23 H           6.0010   -2.9650    0.0000 H       1  UNL1        0.0619
     24 H           4.5981   -3.7750    0.0000 H       1  UNL1        0.0619
     25 H           6.8671    3.1550    0.0000 H       1  UNL1        0.2095
     26 H           1.6900   -1.1181    0.0000 H       1  UNL1        0.0660
     27 H           1.4631   -1.9650    0.0000 H       1  UNL1        0.0660
     28 H           2.3100   -2.1919    0.0000 H       1  UNL1        0.0660
@<TRIPOS>BOND
     1     1     6    1
     2     1     8    1
     3     2     5    1
     4     2    22    1
     5     3     7    1
     6     3    25    1
     7     4     9    1
     8     4    14    1
     9     5     6    1
    10     5     7    1
    11     5    15    1
    12     6    16    1
    13     6    17    1
    14     7    18    1
    15     7    19    1
    16     8     9   ar
    17     8    10   ar
    18     9    11   ar
    19    10    12   ar
    20    10    20    1
    21    11    13   ar
    22    11    21    1
    23    12    13   ar
    24    12    23    1
    25    13    24    1
    26    14    26    1
    27    14    27    1
    28    14    28    1
