@<TRIPOS>MOLECULE
IMPHY015280
 41 40 0 0 0
SMALL
GASTEIGER

@<TRIPOS>ATOM
      1 C           5.4641    0.7500    0.0000 C.3     1  UNL1       -0.0530
      2 C           6.3301    0.2500    0.0000 C.3     1  UNL1       -0.0531
      3 C           4.5981    0.2500    0.0000 C.3     1  UNL1       -0.0528
      4 C           7.1962    0.7500    0.0000 C.3     1  UNL1       -0.0531
      5 C           3.7320    0.7500    0.0000 C.3     1  UNL1       -0.0507
      6 C           8.0622    0.2500    0.0000 C.3     1  UNL1       -0.0531
      7 C           2.8660    0.2500    0.0000 C.3     1  UNL1       -0.0467
      8 C           8.9282    0.7500    0.0000 C.3     1  UNL1       -0.0531
      9 C           9.7942    0.2500    0.0000 C.3     1  UNL1       -0.0533
     10 C           2.0000    0.7500    0.0000 C.3     1  UNL1       -0.0627
     11 C           2.8660   -0.7500    0.0000 C.3     1  UNL1       -0.0627
     12 C          10.6603    0.7500    0.0000 C.3     1  UNL1       -0.0559
     13 C          11.5263    0.2500    0.0000 C.3     1  UNL1       -0.0653
     14 H           5.8626    1.2250    0.0000 H       1  UNL1        0.0265
     15 H           5.0656    1.2250    0.0000 H       1  UNL1        0.0265
     16 H           5.9316   -0.2249    0.0000 H       1  UNL1        0.0265
     17 H           6.7287   -0.2249    0.0000 H       1  UNL1        0.0265
     18 H           4.1996   -0.2249    0.0000 H       1  UNL1        0.0265
     19 H           4.9966   -0.2249    0.0000 H       1  UNL1        0.0265
     20 H           7.5947    1.2250    0.0000 H       1  UNL1        0.0265
     21 H           6.7976    1.2250    0.0000 H       1  UNL1        0.0265
     22 H           4.1306    1.2250    0.0000 H       1  UNL1        0.0268
     23 H           3.3335    1.2250    0.0000 H       1  UNL1        0.0268
     24 H           7.6636   -0.2249    0.0000 H       1  UNL1        0.0265
     25 H           8.4607   -0.2249    0.0000 H       1  UNL1        0.0265
     26 H           2.8660    0.8700    0.0000 H       1  UNL1        0.0295
     27 H           9.3267    1.2250    0.0000 H       1  UNL1        0.0265
     28 H           8.5297    1.2250    0.0000 H       1  UNL1        0.0265
     29 H           9.3957   -0.2249    0.0000 H       1  UNL1        0.0265
     30 H          10.1928   -0.2249    0.0000 H       1  UNL1        0.0265
     31 H           2.3100    1.2869    0.0000 H       1  UNL1        0.0232
     32 H           1.4631    1.0600    0.0000 H       1  UNL1        0.0232
     33 H           1.6900    0.2131    0.0000 H       1  UNL1        0.0232
     34 H           2.2460   -0.7500    0.0000 H       1  UNL1        0.0232
     35 H           2.8660   -1.3700    0.0000 H       1  UNL1        0.0232
     36 H           3.4860   -0.7500    0.0000 H       1  UNL1        0.0232
     37 H          11.0588    1.2250    0.0000 H       1  UNL1        0.0263
     38 H          10.2617    1.2250    0.0000 H       1  UNL1        0.0263
     39 H          11.2163   -0.2869    0.0000 H       1  UNL1        0.0230
     40 H          12.0632   -0.0600    0.0000 H       1  UNL1        0.0230
     41 H          11.8363    0.7869    0.0000 H       1  UNL1        0.0230
@<TRIPOS>BOND
     1     1     2    1
     2     1     3    1
     3     1    14    1
     4     1    15    1
     5     2     4    1
     6     2    16    1
     7     2    17    1
     8     3     5    1
     9     3    18    1
    10     3    19    1
    11     4     6    1
    12     4    20    1
    13     4    21    1
    14     5     7    1
    15     5    22    1
    16     5    23    1
    17     6     8    1
    18     6    24    1
    19     6    25    1
    20     7    10    1
    21     7    11    1
    22     7    26    1
    23     8     9    1
    24     8    27    1
    25     8    28    1
    26     9    12    1
    27     9    29    1
    28     9    30    1
    29    10    31    1
    30    10    32    1
    31    10    33    1
    32    11    34    1
    33    11    35    1
    34    11    36    1
    35    12    13    1
    36    12    37    1
    37    12    38    1
    38    13    39    1
    39    13    40    1
    40    13    41    1
