@<TRIPOS>MOLECULE
IMPHY017409
 23 22 0 0 0
SMALL
GASTEIGER

@<TRIPOS>ATOM
      1 O           2.5369   -0.2500    0.0000 O.3     1  UNL1       -0.3910
      2 C           6.8671    0.2500    0.0000 C.3     1  UNL1       -0.0462
      3 C           6.0010   -0.2500    0.0000 C.3     1  UNL1       -0.0344
      4 C           7.7331   -0.2500    0.0000 C.3     1  UNL1       -0.0347
      5 C           5.1350    0.2500    0.0000 C.2     1  UNL1       -0.0858
      6 C           8.5991    0.2500    0.0000 C.2     1  UNL1       -0.0911
      7 C           4.2690   -0.2500    0.0000 C.2     1  UNL1       -0.0629
      8 C           3.4030    0.2500    0.0000 C.3     1  UNL1        0.0624
      9 C           9.4651   -0.2500    0.0000 C.2     1  UNL1       -0.1026
     10 H           7.2656    0.7249    0.0000 H       1  UNL1        0.0271
     11 H           6.4685    0.7249    0.0000 H       1  UNL1        0.0271
     12 H           5.6025   -0.7249    0.0000 H       1  UNL1        0.0307
     13 H           6.3996   -0.7249    0.0000 H       1  UNL1        0.0307
     14 H           7.3346   -0.7249    0.0000 H       1  UNL1        0.0307
     15 H           8.1316   -0.7249    0.0000 H       1  UNL1        0.0307
     16 H           5.1350    0.8700    0.0000 H       1  UNL1        0.0570
     17 H           8.5991    0.8700    0.0000 H       1  UNL1        0.0566
     18 H           4.2690   -0.8700    0.0000 H       1  UNL1        0.0591
     19 H           3.8015    0.7249    0.0000 H       1  UNL1        0.0601
     20 H           3.0044    0.7249    0.0000 H       1  UNL1        0.0601
     21 H           9.4651   -0.8700    0.0000 H       1  UNL1        0.0532
     22 H          10.0021    0.0600    0.0000 H       1  UNL1        0.0532
     23 H           2.0000    0.0600    0.0000 H       1  UNL1        0.2098
@<TRIPOS>BOND
     1     1     8    1
     2     1    23    1
     3     2     3    1
     4     2     4    1
     5     2    10    1
     6     2    11    1
     7     3     5    1
     8     3    12    1
     9     3    13    1
    10     4     6    1
    11     4    14    1
    12     4    15    1
    13     5     7    2
    14     5    16    1
    15     6     9    2
    16     6    17    1
    17     7     8    1
    18     7    18    1
    19     8    19    1
    20     8    20    1
    21     9    21    1
    22     9    22    1
