@<TRIPOS>MOLECULE
IMPHY005001
 40 41 0 0 0
SMALL
GASTEIGER

@<TRIPOS>ATOM
      1 O           2.8660    1.5000    0.0000 O.2     1  UNL1       -0.2924
      2 C           5.4641    0.0000    0.0000 C.3     1  UNL1       -0.0222
      3 C           5.4641    1.0000    0.0000 C.3     1  UNL1       -0.0281
      4 C           6.3580   -0.5347    0.0000 C.3     1  UNL1       -0.0379
      5 C           6.3580    1.5346    0.0000 C.3     1  UNL1       -0.0493
      6 C           4.5981   -0.5000    0.0000 C.3     1  UNL1       -0.0185
      7 C           7.2641   -0.0208    0.0000 C.3     1  UNL1       -0.0499
      8 C           7.2641    1.0208    0.0000 C.3     1  UNL1       -0.0525
      9 C           4.5981    1.5000    0.0000 C.3     1  UNL1        0.0135
     10 C           5.4641   -1.0000    0.0000 C.3     1  UNL1       -0.0588
     11 C           3.7320    0.0000    0.0000 C.2     1  UNL1       -0.0057
     12 C           6.3465   -1.5346    0.0000 C.3     1  UNL1       -0.0619
     13 C           3.7320    1.0000    0.0000 C.2     1  UNL1        0.1595
     14 C           2.8660   -0.5000    0.0000 C.2     1  UNL1       -0.0692
     15 C           2.8660   -1.5000    0.0000 C.3     1  UNL1       -0.0434
     16 C           2.0000    0.0000    0.0000 C.3     1  UNL1       -0.0434
     17 H           5.4576    1.8499    0.0000 H       1  UNL1        0.0310
     18 H           6.8920   -0.8499    0.0000 H       1  UNL1        0.0304
     19 H           6.7517    2.0136    0.0000 H       1  UNL1        0.0268
     20 H           5.9534    2.0044    0.0000 H       1  UNL1        0.0268
     21 H           4.1996   -0.9750    0.0000 H       1  UNL1        0.0320
     22 H           4.9966   -0.9750    0.0000 H       1  UNL1        0.0320
     23 H           7.4732   -0.6045    0.0000 H       1  UNL1        0.0268
     24 H           7.8750    0.0852    0.0000 H       1  UNL1        0.0268
     25 H           7.8750    0.9147    0.0000 H       1  UNL1        0.0265
     26 H           7.4732    1.6045    0.0000 H       1  UNL1        0.0265
     27 H           4.9966    1.9749    0.0000 H       1  UNL1        0.0348
     28 H           4.1996    1.9749    0.0000 H       1  UNL1        0.0348
     29 H           4.8441   -1.0000    0.0000 H       1  UNL1        0.0235
     30 H           5.4641   -1.6200    0.0000 H       1  UNL1        0.0235
     31 H           6.0841   -1.0000    0.0000 H       1  UNL1        0.0235
     32 H           5.7265   -1.5275    0.0000 H       1  UNL1        0.0233
     33 H           6.3393   -2.1546    0.0000 H       1  UNL1        0.0233
     34 H           6.9664   -1.5418    0.0000 H       1  UNL1        0.0233
     35 H           2.2460   -1.5000    0.0000 H       1  UNL1        0.0274
     36 H           2.8660   -2.1200    0.0000 H       1  UNL1        0.0274
     37 H           3.4860   -1.5000    0.0000 H       1  UNL1        0.0274
     38 H           2.3100    0.5369    0.0000 H       1  UNL1        0.0274
     39 H           1.4631    0.3100    0.0000 H       1  UNL1        0.0274
     40 H           1.6900   -0.5370    0.0000 H       1  UNL1        0.0274
@<TRIPOS>BOND
     1     1    13    2
     2     2     3    1
     3     2     4    1
     4     2     6    1
     5     2    10    1
     6     3     5    1
     7     3     9    1
     8     3    17    1
     9     4     7    1
    10     4    12    1
    11     4    18    1
    12     5     8    1
    13     5    19    1
    14     5    20    1
    15     6    11    1
    16     6    21    1
    17     6    22    1
    18     7     8    1
    19     7    23    1
    20     7    24    1
    21     8    25    1
    22     8    26    1
    23     9    13    1
    24     9    27    1
    25     9    28    1
    26    10    29    1
    27    10    30    1
    28    10    31    1
    29    11    13    1
    30    11    14    2
    31    12    32    1
    32    12    33    1
    33    12    34    1
    34    14    15    1
    35    14    16    1
    36    15    35    1
    37    15    36    1
    38    15    37    1
    39    16    38    1
    40    16    39    1
    41    16    40    1
