@<TRIPOS>MOLECULE
IMPHY006564
 41 42 0 0 0
SMALL
GASTEIGER

@<TRIPOS>ATOM
      1 O           3.7320    2.4050    0.0000 O.2     1  UNL1       -0.2927
      2 O           2.8660   -5.0950    0.0000 O.3     1  UNL1       -0.5068
      3 C           2.8660   -1.0950    0.0000 C.3     1  UNL1       -0.0242
      4 C           5.4641    3.4050    0.0000 C.3     1  UNL1       -0.0207
      5 C           3.7320   -0.5950    0.0000 C.3     1  UNL1       -0.0304
      6 C           5.4641    2.4050    0.0000 C.3     1  UNL1        0.0138
      7 C           2.8660   -2.0950    0.0000 C.ar    1  UNL1       -0.0468
      8 C           6.3301    3.9050    0.0000 C.ar    1  UNL1       -0.0469
      9 C           3.7320    0.4050    0.0000 C.2     1  UNL1       -0.0804
     10 C           4.5981    1.9050    0.0000 C.2     1  UNL1        0.1561
     11 C           4.5981    0.9050    0.0000 C.2     1  UNL1       -0.0231
     12 C           2.0000   -2.5950    0.0000 C.ar    1  UNL1       -0.0551
     13 C           3.7320   -2.5950    0.0000 C.ar    1  UNL1       -0.0551
     14 C           7.1962    3.4050    0.0000 C.ar    1  UNL1       -0.0586
     15 C           6.3301    4.9050    0.0000 C.ar    1  UNL1       -0.0586
     16 C           2.0000   -3.5950    0.0000 C.ar    1  UNL1       -0.0199
     17 C           3.7320   -3.5950    0.0000 C.ar    1  UNL1       -0.0199
     18 C           2.8660   -4.0950    0.0000 C.ar    1  UNL1        0.1169
     19 C           8.0622    3.9050    0.0000 C.ar    1  UNL1       -0.0615
     20 C           7.1962    5.4050    0.0000 C.ar    1  UNL1       -0.0615
     21 C           8.0622    4.9050    0.0000 C.ar    1  UNL1       -0.0617
     22 H           2.6540   -0.5124    0.0000 H       1  UNL1        0.0316
     23 H           2.2554   -1.2027    0.0000 H       1  UNL1        0.0316
     24 H           5.2520    3.9876    0.0000 H       1  UNL1        0.0317
     25 H           4.8535    3.2973    0.0000 H       1  UNL1        0.0317
     26 H           3.9441   -1.1776    0.0000 H       1  UNL1        0.0311
     27 H           4.3426   -0.4873    0.0000 H       1  UNL1        0.0311
     28 H           5.6762    1.8224    0.0000 H       1  UNL1        0.0348
     29 H           6.0747    2.5127    0.0000 H       1  UNL1        0.0348
     30 H           3.1951    0.7150    0.0000 H       1  UNL1        0.0573
     31 H           5.1350    0.5950    0.0000 H       1  UNL1        0.0649
     32 H           1.4631   -2.2850    0.0000 H       1  UNL1        0.0621
     33 H           4.2690   -2.2850    0.0000 H       1  UNL1        0.0621
     34 H           7.1962    2.7850    0.0000 H       1  UNL1        0.0620
     35 H           5.7932    5.2150    0.0000 H       1  UNL1        0.0620
     36 H           1.4631   -3.9050    0.0000 H       1  UNL1        0.0654
     37 H           4.2690   -3.9050    0.0000 H       1  UNL1        0.0654
     38 H           8.5991    3.5950    0.0000 H       1  UNL1        0.0618
     39 H           7.1962    6.0250    0.0000 H       1  UNL1        0.0618
     40 H           8.5991    5.2150    0.0000 H       1  UNL1        0.0618
     41 H           2.3291   -5.4050    0.0000 H       1  UNL1        0.2921
@<TRIPOS>BOND
     1     1    10    2
     2     2    18    1
     3     2    41    1
     4     3     5    1
     5     3     7    1
     6     3    22    1
     7     3    23    1
     8     4     6    1
     9     4     8    1
    10     4    24    1
    11     4    25    1
    12     5     9    1
    13     5    26    1
    14     5    27    1
    15     6    10    1
    16     6    28    1
    17     6    29    1
    18     7    12   ar
    19     7    13   ar
    20     8    14   ar
    21     8    15   ar
    22     9    11    2
    23     9    30    1
    24    10    11    1
    25    11    31    1
    26    12    16   ar
    27    12    32    1
    28    13    17   ar
    29    13    33    1
    30    14    19   ar
    31    14    34    1
    32    15    20   ar
    33    15    35    1
    34    16    18   ar
    35    16    36    1
    36    17    18   ar
    37    17    37    1
    38    19    21   ar
    39    19    38    1
    40    20    21   ar
    41    20    39    1
    42    21    40    1
