@<TRIPOS>MOLECULE
IMPHY017546
 42 44 0 0 0
SMALL
GASTEIGER

@<TRIPOS>ATOM
      1 O           4.4741   -2.2305    0.0000 O.3     1  UNL1       -0.3915
      2 C           2.9986   -0.0510    0.0000 C.3     1  UNL1       -0.0233
      3 C           4.4164    0.0254    0.0000 C.3     1  UNL1       -0.0293
      4 C           5.8153    0.0342    0.0000 C.3     1  UNL1       -0.0287
      5 C           4.6752    0.9913    0.0000 C.3     1  UNL1       -0.0318
      6 C           5.3659   -0.8545    0.0000 C.3     1  UNL1       -0.0093
      7 C           3.1954    1.6431    0.0000 C.3     1  UNL1       -0.0403
      8 C           3.5009   -0.9109    0.0000 C.3     1  UNL1       -0.0206
      9 C           4.5967    2.4521    0.0000 C.3     1  UNL1       -0.0492
     10 C           4.4439   -1.2310    0.0000 C.3     1  UNL1        0.0591
     11 C           3.6022    2.5566    0.0000 C.3     1  UNL1       -0.0499
     12 C           2.0000   -0.1047    0.0000 C.3     1  UNL1       -0.0589
     13 C           6.0440   -1.5895    0.0000 C.3     1  UNL1       -0.0413
     14 C           2.2173    1.4352    0.0000 C.3     1  UNL1       -0.0621
     15 C           7.0195   -1.3698    0.0000 C.3     1  UNL1       -0.0623
     16 C           5.7465   -2.5442    0.0000 C.3     1  UNL1       -0.0623
     17 H           3.8542    0.2868    0.0000 H       1  UNL1        0.0312
     18 H           6.4227    0.1587    0.0000 H       1  UNL1        0.0310
     19 H           5.2299    1.2683    0.0000 H       1  UNL1        0.0309
     20 H           5.9800   -0.7689    0.0000 H       1  UNL1        0.0331
     21 H           2.8052    2.1249    0.0000 H       1  UNL1        0.0301
     22 H           2.8991   -1.0603    0.0000 H       1  UNL1        0.0296
     23 H           3.4749   -1.5303    0.0000 H       1  UNL1        0.0296
     24 H           5.2167    2.4526    0.0000 H       1  UNL1        0.0268
     25 H           4.6289    3.0712    0.0000 H       1  UNL1        0.0268
     26 H           4.9637   -1.5689    0.0000 H       1  UNL1        0.0596
     27 H           3.7311    3.1631    0.0000 H       1  UNL1        0.0268
     28 H           3.0125    2.7482    0.0000 H       1  UNL1        0.0268
     29 H           1.9667    0.5144    0.0000 H       1  UNL1        0.0235
     30 H           1.3809   -0.1381    0.0000 H       1  UNL1        0.0235
     31 H           2.0333   -0.7238    0.0000 H       1  UNL1        0.0235
     32 H           5.4391   -1.7257    0.0000 H       1  UNL1        0.0299
     33 H           2.0884    2.0416    0.0000 H       1  UNL1        0.0233
     34 H           1.6108    1.3062    0.0000 H       1  UNL1        0.0233
     35 H           2.3462    0.8287    0.0000 H       1  UNL1        0.0233
     36 H           3.9468   -2.5566    0.0000 H       1  UNL1        0.2098
     37 H           7.1557   -1.9746    0.0000 H       1  UNL1        0.0232
     38 H           7.6244   -1.2335    0.0000 H       1  UNL1        0.0232
     39 H           6.8833   -0.7649    0.0000 H       1  UNL1        0.0232
     40 H           5.1545   -2.3598    0.0000 H       1  UNL1        0.0232
     41 H           5.5620   -3.1361    0.0000 H       1  UNL1        0.0232
     42 H           6.3384   -2.7287    0.0000 H       1  UNL1        0.0232
@<TRIPOS>BOND
     1     1    10    1
     2     1    36    1
     3     2     3    1
     4     2     5    1
     5     2     8    1
     6     2    12    1
     7     3     4    1
     8     3     7    1
     9     3    17    1
    10     4     5    1
    11     4     6    1
    12     4    18    1
    13     5     9    1
    14     5    19    1
    15     6    10    1
    16     6    13    1
    17     6    20    1
    18     7    11    1
    19     7    14    1
    20     7    21    1
    21     8    10    1
    22     8    22    1
    23     8    23    1
    24     9    11    1
    25     9    24    1
    26     9    25    1
    27    10    26    1
    28    11    27    1
    29    11    28    1
    30    12    29    1
    31    12    30    1
    32    12    31    1
    33    13    15    1
    34    13    16    1
    35    13    32    1
    36    14    33    1
    37    14    34    1
    38    14    35    1
    39    15    37    1
    40    15    38    1
    41    15    39    1
    42    16    40    1
    43    16    41    1
    44    16    42    1
