@<TRIPOS>MOLECULE
IMPHY015704
 42 43 0 0 0
SMALL
GASTEIGER

@<TRIPOS>ATOM
      1 O           5.0000   -1.2990    0.0000 O.3     1  UNL1       -0.3906
      2 C           5.0000    0.4330    0.0000 C.3     1  UNL1        0.0180
      3 C           4.5000    1.2990    0.0000 C.3     1  UNL1       -0.0324
      4 C           4.5000   -0.4330    0.0000 C.3     1  UNL1        0.0676
      5 C           3.5000   -0.4330    0.0000 C.3     1  UNL1       -0.0118
      6 C           5.5878   -0.3760    0.0000 C.3     1  UNL1       -0.0376
      7 C           3.5000    1.2990    0.0000 C.3     1  UNL1       -0.0493
      8 C           3.0000    0.4330    0.0000 C.3     1  UNL1       -0.0473
      9 C           5.5878    1.2420    0.0000 C.2     1  UNL1       -0.0761
     10 C           3.0000   -1.2990    0.0000 C.3     1  UNL1       -0.0415
     11 C           6.5388   -0.0670    0.0000 C.3     1  UNL1       -0.0311
     12 C           6.5388    0.9330    0.0000 C.2     1  UNL1       -0.0759
     13 C           5.0000    2.1651    0.0000 C.3     1  UNL1       -0.0615
     14 C           2.0000   -1.2990    0.0000 C.3     1  UNL1       -0.0623
     15 C           3.5000   -2.1651    0.0000 C.3     1  UNL1       -0.0623
     16 C           7.3479    1.5208    0.0000 C.3     1  UNL1       -0.0438
     17 H           5.1200    1.2990    0.0000 H       1  UNL1        0.0307
     18 H           4.1900   -0.9699    0.0000 H       1  UNL1        0.0605
     19 H           2.8800   -0.4330    0.0000 H       1  UNL1        0.0328
     20 H           5.0508   -0.6860    0.0000 H       1  UNL1        0.0277
     21 H           5.8400   -0.9424    0.0000 H       1  UNL1        0.0277
     22 H           3.6077    1.9096    0.0000 H       1  UNL1        0.0268
     23 H           2.9174    1.5111    0.0000 H       1  UNL1        0.0268
     24 H           2.5250    0.8315    0.0000 H       1  UNL1        0.0269
     25 H           2.5250    0.0345    0.0000 H       1  UNL1        0.0269
     26 H           5.3962    1.8317    0.0000 H       1  UNL1        0.0578
     27 H           3.6200   -1.2990    0.0000 H       1  UNL1        0.0299
     28 H           6.6678   -0.6734    0.0000 H       1  UNL1        0.0310
     29 H           7.1554   -0.0022    0.0000 H       1  UNL1        0.0310
     30 H           5.5369    1.8551    0.0000 H       1  UNL1        0.0233
     31 H           5.3100    2.7020    0.0000 H       1  UNL1        0.0233
     32 H           4.4631    2.4751    0.0000 H       1  UNL1        0.0233
     33 H           4.6900   -1.8360    0.0000 H       1  UNL1        0.2098
     34 H           2.0000   -0.6790    0.0000 H       1  UNL1        0.0232
     35 H           1.3800   -1.2990    0.0000 H       1  UNL1        0.0232
     36 H           2.0000   -1.9190    0.0000 H       1  UNL1        0.0232
     37 H           2.9631   -2.4751    0.0000 H       1  UNL1        0.0232
     38 H           3.8100   -2.7020    0.0000 H       1  UNL1        0.0232
     39 H           4.0369   -1.8551    0.0000 H       1  UNL1        0.0232
     40 H           7.7123    1.0192    0.0000 H       1  UNL1        0.0274
     41 H           7.8494    1.8852    0.0000 H       1  UNL1        0.0274
     42 H           6.9834    2.0224    0.0000 H       1  UNL1        0.0274
@<TRIPOS>BOND
     1     4     1    1
     2     1    33    1
     3     2     3    1
     4     2     4    1
     5     2     6    1
     6     2     9    1
     7     3     7    1
     8     3    13    1
     9     3    17    1
    10     4     5    1
    11     4    18    1
    12     5     8    1
    13     5    10    1
    14     5    19    1
    15     6    11    1
    16     6    20    1
    17     6    21    1
    18     7     8    1
    19     7    22    1
    20     7    23    1
    21     8    24    1
    22     8    25    1
    23     9    12    2
    24     9    26    1
    25    10    14    1
    26    10    15    1
    27    10    27    1
    28    11    12    1
    29    11    28    1
    30    11    29    1
    31    12    16    1
    32    13    30    1
    33    13    31    1
    34    13    32    1
    35    14    34    1
    36    14    35    1
    37    14    36    1
    38    15    37    1
    39    15    38    1
    40    15    39    1
    41    16    40    1
    42    16    41    1
    43    16    42    1
