@<TRIPOS>MOLECULE
IMPHY011726
 34 35 0 0 0
SMALL
GASTEIGER

@<TRIPOS>ATOM
      1 O           2.9935    0.3871    0.0000 O.3     1  UNL1       -0.4604
      2 O           3.7255    1.9568    0.0000 O.2     1  UNL1       -0.2512
      3 C           5.8733    0.5827    0.0000 C.3     1  UNL1        0.0058
      4 C           5.6145   -0.3832    0.0000 C.3     1  UNL1       -0.0319
      5 C           4.2418   -0.9752    0.0000 C.3     1  UNL1        0.0055
      6 C           3.8998   -0.0355    0.0000 C.3     1  UNL1        0.1137
      7 C           5.1367    1.5653    0.0000 C.3     1  UNL1       -0.0408
      8 C           7.2722    0.0739    0.0000 C.3     1  UNL1       -0.0440
      9 C           7.0134   -0.8920    0.0000 C.3     1  UNL1       -0.0490
     10 C           6.1321    1.5486    0.0000 C.3     1  UNL1       -0.0562
     11 C           3.3672   -1.4600    0.0000 C.3     1  UNL1       -0.0562
     12 C           4.4326   -1.9568    0.0000 C.3     1  UNL1       -0.0562
     13 C           2.9063    1.3833    0.0000 C.2     1  UNL1        0.3042
     14 C           2.0000    1.8059    0.0000 C.3     1  UNL1        0.0332
     15 H           5.3945   -1.2042    0.0000 H       1  UNL1        0.0307
     16 H           3.9409    0.5831    0.0000 H       1  UNL1        0.0745
     17 H           5.4545    2.0977    0.0000 H       1  UNL1        0.0275
     18 H           4.5236    1.6573    0.0000 H       1  UNL1        0.0275
     19 H           7.8662   -0.1039    0.0000 H       1  UNL1        0.0272
     20 H           7.4672    0.6625    0.0000 H       1  UNL1        0.0272
     21 H           6.8185   -1.4806    0.0000 H       1  UNL1        0.0268
     22 H           7.6074   -1.0698    0.0000 H       1  UNL1        0.0268
     23 H           6.7310    1.3882    0.0000 H       1  UNL1        0.0236
     24 H           6.2926    2.1475    0.0000 H       1  UNL1        0.0236
     25 H           5.5333    1.7091    0.0000 H       1  UNL1        0.0236
     26 H           3.8240   -2.0752    0.0000 H       1  UNL1        0.0236
     27 H           4.5509   -2.5655    0.0000 H       1  UNL1        0.0236
     28 H           5.0412   -1.8386    0.0000 H       1  UNL1        0.0236
     29 H           3.0666   -0.9178    0.0000 H       1  UNL1        0.0236
     30 H           2.8249   -1.7606    0.0000 H       1  UNL1        0.0236
     31 H           3.6678   -2.0023    0.0000 H       1  UNL1        0.0236
     32 H           2.2620    2.3678    0.0000 H       1  UNL1        0.0342
     33 H           1.4381    2.0679    0.0000 H       1  UNL1        0.0342
     34 H           1.7380    1.2440    0.0000 H       1  UNL1        0.0342
@<TRIPOS>BOND
     1     6     1    1
     2     1    13    1
     3     2    13    2
     4     3     6    1
     5     3     7    1
     6     3     8    1
     7     3    10    1
     8     4     5    1
     9     4     7    1
    10     4     9    1
    11     4    15    1
    12     5     6    1
    13     5    11    1
    14     5    12    1
    15     6    16    1
    16     7    17    1
    17     7    18    1
    18     8     9    1
    19     8    19    1
    20     8    20    1
    21     9    21    1
    22     9    22    1
    23    10    23    1
    24    10    24    1
    25    10    25    1
    26    11    29    1
    27    11    30    1
    28    11    31    1
    29    12    26    1
    30    12    27    1
    31    12    28    1
    32    13    14    1
    33    14    32    1
    34    14    33    1
    35    14    34    1
