@<TRIPOS>MOLECULE
IMPHY013224
 57 60 0 0 0
SMALL
GASTEIGER

@<TRIPOS>ATOM
      1 O           5.1350    0.4198    0.0000 O.3     1  UNL1       -0.3598
      2 O           6.8671    2.4198    0.0000 O.3     1  UNL1       -0.4558
      3 O           5.1350    3.4198    0.0000 O.3     1  UNL1       -0.3854
      4 O           3.4030    2.4198    0.0000 O.3     1  UNL1       -0.3865
      5 O           2.5369    0.9198    0.0000 O.3     1  UNL1       -0.3924
      6 O           7.7331    1.9198    0.0000 O.3     1  UNL1       -0.5054
      7 O           6.0010   -1.0802    0.0000 O.3     1  UNL1       -0.5062
      8 O           9.4931   -1.1149    0.0000 O.2     1  UNL1       -0.4544
      9 O           6.0010    3.9198    0.0000 O.2     1  UNL1       -0.2512
     10 O           9.4815    1.9544    0.0000 O.2     1  UNL1       -0.2869
     11 O          12.1196   -3.6077    0.0000 O.3     1  UNL1       -0.5033
     12 O          13.8555   -2.6144    0.0000 O.3     1  UNL1       -0.5033
     13 C           6.0010    1.9198    0.0000 C.3     1  UNL1        0.1615
     14 C           5.1350    2.4198    0.0000 C.3     1  UNL1        0.1231
     15 C           6.0010    0.9198    0.0000 C.3     1  UNL1        0.1303
     16 C           4.2690    1.9198    0.0000 C.3     1  UNL1        0.1128
     17 C           4.2690    0.9198    0.0000 C.3     1  UNL1        0.1109
     18 C           6.8671    0.4198    0.0000 C.ar    1  UNL1        0.0684
     19 C           3.4030    0.4198    0.0000 C.3     1  UNL1        0.0729
     20 C           7.7331    0.9198    0.0000 C.ar    1  UNL1        0.1404
     21 C           6.8671   -0.5802    0.0000 C.ar    1  UNL1        0.1296
     22 C           8.5991    0.4198    0.0000 C.ar    1  UNL1        0.1058
     23 C           7.7331   -1.0802    0.0000 C.ar    1  UNL1        0.0235
     24 C           8.5991   -0.5802    0.0000 C.ar    1  UNL1        0.1463
     25 C           6.8671    3.4198    0.0000 C.2     1  UNL1        0.3044
     26 C           9.4931    0.9544    0.0000 C.ar    1  UNL1        0.1966
     27 C           7.7331    3.9198    0.0000 C.3     1  UNL1        0.0332
     28 C          10.3991   -0.6010    0.0000 C.ar    1  UNL1        0.1393
     29 C          10.3991    0.4406    0.0000 C.ar    1  UNL1        0.0288
     30 C          11.2632   -1.1044    0.0000 C.ar    1  UNL1        0.0211
     31 C          11.2594   -2.1044    0.0000 C.ar    1  UNL1       -0.0059
     32 C          12.1312   -0.6077    0.0000 C.ar    1  UNL1       -0.0474
     33 C          12.1235   -2.6077    0.0000 C.ar    1  UNL1        0.1589
     34 C          12.9953   -1.1111    0.0000 C.ar    1  UNL1       -0.0159
     35 C          12.9914   -2.1110    0.0000 C.ar    1  UNL1        0.1583
     36 H           6.5380    1.6098    0.0000 H       1  UNL1        0.0791
     37 H           5.6720    2.7298    0.0000 H       1  UNL1        0.0658
     38 H           6.0010    0.2998    0.0000 H       1  UNL1        0.0687
     39 H           4.2690    2.5398    0.0000 H       1  UNL1        0.0647
     40 H           4.2690    0.2998    0.0000 H       1  UNL1        0.0646
     41 H           3.0044   -0.0552    0.0000 H       1  UNL1        0.0584
     42 H           3.8015   -0.0552    0.0000 H       1  UNL1        0.0584
     43 H           4.5981    3.7298    0.0000 H       1  UNL1        0.2101
     44 H           3.4030    3.0398    0.0000 H       1  UNL1        0.2100
     45 H           7.7331   -1.7002    0.0000 H       1  UNL1        0.0691
     46 H           2.0000    0.6098    0.0000 H       1  UNL1        0.2095
     47 H           8.2700    2.2298    0.0000 H       1  UNL1        0.2922
     48 H           6.0010   -1.7002    0.0000 H       1  UNL1        0.2922
     49 H           8.0431    3.3828    0.0000 H       1  UNL1        0.0342
     50 H           8.2700    4.2298    0.0000 H       1  UNL1        0.0342
     51 H           7.4231    4.4567    0.0000 H       1  UNL1        0.0342
     52 H          10.9349    0.7527    0.0000 H       1  UNL1        0.0693
     53 H          10.7212   -2.4123    0.0000 H       1  UNL1        0.0662
     54 H          12.1336    0.0123    0.0000 H       1  UNL1        0.0626
     55 H          13.5334   -0.8031    0.0000 H       1  UNL1        0.0655
     56 H          12.6553   -3.9198    0.0000 H       1  UNL1        0.2923
     57 H          14.3936   -2.3065    0.0000 H       1  UNL1        0.2923
@<TRIPOS>BOND
     1     1    15    1
     2     1    17    1
     3     2    13    1
     4     2    25    1
     5     3    14    1
     6     3    43    1
     7     4    16    1
     8     4    44    1
     9     5    19    1
    10     5    46    1
    11     6    20    1
    12     6    47    1
    13     7    21    1
    14     7    48    1
    15     8    24   ar
    16     8    28   ar
    17     9    25    2
    18    10    26    2
    19    11    33    1
    20    11    56    1
    21    12    35    1
    22    12    57    1
    23    13    14    1
    24    13    15    1
    25    13    36    1
    26    14    16    1
    27    14    37    1
    28    15    18    1
    29    15    38    1
    30    16    17    1
    31    16    39    1
    32    17    19    1
    33    17    40    1
    34    18    20   ar
    35    18    21   ar
    36    19    41    1
    37    19    42    1
    38    20    22   ar
    39    21    23   ar
    40    22    24   ar
    41    22    26   ar
    42    23    24   ar
    43    23    45    1
    44    25    27    1
    45    26    29   ar
    46    27    49    1
    47    27    50    1
    48    27    51    1
    49    28    29   ar
    50    28    30    1
    51    29    52    1
    52    30    31   ar
    53    30    32   ar
    54    31    33   ar
    55    31    53    1
    56    32    34   ar
    57    32    54    1
    58    33    35   ar
    59    34    35   ar
    60    34    55    1
