@<TRIPOS>MOLECULE
IMPHY014316
 40 41 0 0 0
SMALL
GASTEIGER

@<TRIPOS>ATOM
      1 O           7.7494   -1.8765    0.0000 O.3     1  UNL1       -0.3912
      2 O           2.5369    1.1581    0.0000 O.3     1  UNL1       -0.4773
      3 O           3.4030   -0.3419    0.0000 O.2     1  UNL1       -0.2455
      4 C           6.8671   -0.3419    0.0000 C.3     1  UNL1        0.0004
      5 C           6.8671    0.6581    0.0000 C.3     1  UNL1       -0.0119
      6 C           6.0010   -0.8419    0.0000 C.3     1  UNL1       -0.0442
      7 C           7.7610   -0.8766    0.0000 C.3     1  UNL1        0.0614
      8 C           6.0010    1.1581    0.0000 C.3     1  UNL1       -0.0389
      9 C           5.1350    0.6581    0.0000 C.3     1  UNL1       -0.0091
     10 C           5.1350   -0.3419    0.0000 C.3     1  UNL1       -0.0454
     11 C           7.7610    1.1928    0.0000 C.2     1  UNL1       -0.0728
     12 C           8.6671   -0.3627    0.0000 C.3     1  UNL1       -0.0226
     13 C           6.8671   -1.3419    0.0000 C.3     1  UNL1       -0.0567
     14 C           8.6671    0.6789    0.0000 C.3     1  UNL1       -0.0294
     15 C           4.2690    1.1581    0.0000 C.2     1  UNL1        0.0324
     16 C           7.7494    2.1927    0.0000 C.2     1  UNL1       -0.0992
     17 C           3.4030    0.6581    0.0000 C.2     1  UNL1        0.3325
     18 C           4.2690    2.1581    0.0000 C.2     1  UNL1       -0.0885
     19 H           6.8605    1.5081    0.0000 H       1  UNL1        0.0352
     20 H           5.6025   -1.3168    0.0000 H       1  UNL1        0.0272
     21 H           6.3996   -1.3168    0.0000 H       1  UNL1        0.0272
     22 H           8.2949   -1.1917    0.0000 H       1  UNL1        0.0599
     23 H           6.3996    1.6330    0.0000 H       1  UNL1        0.0277
     24 H           5.6025    1.6330    0.0000 H       1  UNL1        0.0277
     25 H           4.5981    0.3481    0.0000 H       1  UNL1        0.0351
     26 H           4.5244   -0.2342    0.0000 H       1  UNL1        0.0271
     27 H           4.9230   -0.9245    0.0000 H       1  UNL1        0.0271
     28 H           8.8761   -0.9464    0.0000 H       1  UNL1        0.0293
     29 H           9.2779   -0.2566    0.0000 H       1  UNL1        0.0293
     30 H           6.2471   -1.3419    0.0000 H       1  UNL1        0.0236
     31 H           6.8671   -1.9619    0.0000 H       1  UNL1        0.0236
     32 H           7.4871   -1.3419    0.0000 H       1  UNL1        0.0236
     33 H           9.2779    0.5728    0.0000 H       1  UNL1        0.0311
     34 H           8.8761    1.2626    0.0000 H       1  UNL1        0.0311
     35 H           8.2828   -2.1927    0.0000 H       1  UNL1        0.2098
     36 H           8.2828    2.5089    0.0000 H       1  UNL1        0.0534
     37 H           7.2090    2.4965    0.0000 H       1  UNL1        0.0534
     38 H           4.8059    2.4681    0.0000 H       1  UNL1        0.0540
     39 H           3.7320    2.4681    0.0000 H       1  UNL1        0.0540
     40 H           2.0000    0.8481    0.0000 H       1  UNL1        0.2954
@<TRIPOS>BOND
     1     7     1    1
     2     1    35    1
     3     2    17    1
     4     2    40    1
     5     3    17    2
     6     4     5    1
     7     4     6    1
     8     4     7    1
     9     4    13    1
    10     5     8    1
    11     5    11    1
    12     5    19    1
    13     6    10    1
    14     6    20    1
    15     6    21    1
    16     7    12    1
    17     7    22    1
    18     8     9    1
    19     8    23    1
    20     8    24    1
    21     9    10    1
    22     9    15    1
    23     9    25    1
    24    10    26    1
    25    10    27    1
    26    11    14    1
    27    11    16    2
    28    12    14    1
    29    12    28    1
    30    12    29    1
    31    13    30    1
    32    13    31    1
    33    13    32    1
    34    14    33    1
    35    14    34    1
    36    15    17    1
    37    15    18    2
    38    16    36    1
    39    16    37    1
    40    18    38    1
    41    18    39    1
