@<TRIPOS>MOLECULE
IMPHY009571
 41 42 0 0 0
SMALL
GASTEIGER

@<TRIPOS>ATOM
      1 O           5.8301    0.9330    0.0000 O.3     1  UNL1       -0.3597
      2 O           7.6962    2.4330    0.0000 O.3     1  UNL1       -0.4621
      3 O           4.5981   -0.9330    0.0000 O.3     1  UNL1       -0.4253
      4 O           3.7320   -2.4330    0.0000 O.2     1  UNL1       -0.2501
      5 O           9.4282    2.4330    0.0000 O.2     1  UNL1       -0.2512
      6 C           6.3301    0.0670    0.0000 C.3     1  UNL1        0.1169
      7 C           6.8301    0.9330    0.0000 C.3     1  UNL1        0.1238
      8 C           6.3301   -0.9330    0.0000 C.ar    1  UNL1        0.0261
      9 C           7.6962    1.4330    0.0000 C.3     1  UNL1        0.1213
     10 C           5.4641   -1.4330    0.0000 C.ar    1  UNL1        0.1376
     11 C           7.1962   -1.4330    0.0000 C.ar    1  UNL1       -0.0523
     12 C           5.4641   -2.4330    0.0000 C.ar    1  UNL1       -0.0160
     13 C           7.1962   -2.4330    0.0000 C.ar    1  UNL1       -0.0583
     14 C           6.3301   -2.9330    0.0000 C.ar    1  UNL1       -0.0470
     15 C           2.8660   -0.9330    0.0000 C.3     1  UNL1        0.0512
     16 C           3.7320   -1.4330    0.0000 C.2     1  UNL1        0.3149
     17 C           6.3301   -3.9330    0.0000 C.3     1  UNL1       -0.0396
     18 C           8.5622    2.9330    0.0000 C.2     1  UNL1        0.3040
     19 C           2.0000   -1.4330    0.0000 C.3     1  UNL1       -0.0525
     20 C           2.8660    0.0670    0.0000 C.3     1  UNL1       -0.0525
     21 C           8.5622    3.9330    0.0000 C.3     1  UNL1        0.0332
     22 H           5.5091   -0.1530    0.0000 H       1  UNL1        0.0675
     23 H           6.6101    1.7540    0.0000 H       1  UNL1        0.0660
     24 H           7.9082    0.8504    0.0000 H       1  UNL1        0.0725
     25 H           8.3067    1.5407    0.0000 H       1  UNL1        0.0725
     26 H           7.7331   -1.1230    0.0000 H       1  UNL1        0.0622
     27 H           4.9272   -2.7430    0.0000 H       1  UNL1        0.0657
     28 H           7.7331   -2.7430    0.0000 H       1  UNL1        0.0620
     29 H           2.8660   -1.5530    0.0000 H       1  UNL1        0.0408
     30 H           5.7101   -3.9330    0.0000 H       1  UNL1        0.0278
     31 H           6.3301   -4.5530    0.0000 H       1  UNL1        0.0278
     32 H           6.9501   -3.9330    0.0000 H       1  UNL1        0.0278
     33 H           1.6900   -0.8961    0.0000 H       1  UNL1        0.0237
     34 H           1.4631   -1.7430    0.0000 H       1  UNL1        0.0237
     35 H           2.3100   -1.9700    0.0000 H       1  UNL1        0.0237
     36 H           3.4860    0.0670    0.0000 H       1  UNL1        0.0237
     37 H           2.8660    0.6870    0.0000 H       1  UNL1        0.0237
     38 H           2.2460    0.0670    0.0000 H       1  UNL1        0.0237
     39 H           9.1822    3.9330    0.0000 H       1  UNL1        0.0342
     40 H           8.5622    4.5530    0.0000 H       1  UNL1        0.0342
     41 H           7.9422    3.9330    0.0000 H       1  UNL1        0.0342
@<TRIPOS>BOND
     1     1     6    1
     2     1     7    1
     3     2     9    1
     4     2    18    1
     5     3    10    1
     6     3    16    1
     7     4    16    2
     8     5    18    2
     9     6     7    1
    10     6     8    1
    11     6    22    1
    12     7     9    1
    13     7    23    1
    14     8    10   ar
    15     8    11   ar
    16     9    24    1
    17     9    25    1
    18    10    12   ar
    19    11    13   ar
    20    11    26    1
    21    12    14   ar
    22    12    27    1
    23    13    14   ar
    24    13    28    1
    25    14    17    1
    26    15    16    1
    27    15    19    1
    28    15    20    1
    29    15    29    1
    30    17    30    1
    31    17    31    1
    32    17    32    1
    33    18    21    1
    34    19    33    1
    35    19    34    1
    36    19    35    1
    37    20    36    1
    38    20    37    1
    39    20    38    1
    40    21    39    1
    41    21    40    1
    42    21    41    1
