@<TRIPOS>MOLECULE
IMPHY005424
 28 30 0 0 0
SMALL
GASTEIGER

@<TRIPOS>ATOM
      1 O           6.4144    1.8592    0.0000 O.3     1  UNL1       -0.5060
      2 O           4.6660   -2.1754    0.0000 O.2     1  UNL1       -0.2866
      3 O           4.6660    1.8246    0.0000 O.2     1  UNL1       -0.2865
      4 C           5.5321   -0.6754    0.0000 C.ar    1  UNL1        0.0368
      5 C           5.5321    0.3246    0.0000 C.ar    1  UNL1        0.0744
      6 C           3.8000   -0.6754    0.0000 C.ar    1  UNL1        0.0331
      7 C           3.8000    0.3246    0.0000 C.ar    1  UNL1        0.0332
      8 C           4.6660   -1.1754    0.0000 C.2     1  UNL1        0.1946
      9 C           4.6660    0.8246    0.0000 C.2     1  UNL1        0.1980
     10 C           6.4260   -1.2100    0.0000 C.ar    1  UNL1       -0.0471
     11 C           6.4260    0.8593    0.0000 C.ar    1  UNL1        0.1286
     12 C           7.3321   -0.6962    0.0000 C.ar    1  UNL1       -0.0463
     13 C           7.3321    0.3454    0.0000 C.ar    1  UNL1       -0.0165
     14 C           2.9061   -1.2100    0.0000 C.ar    1  UNL1       -0.0502
     15 C           2.9061    0.8593    0.0000 C.ar    1  UNL1       -0.0502
     16 C           8.1962   -1.1995    0.0000 C.3     1  UNL1       -0.0396
     17 C           2.0000   -0.6962    0.0000 C.ar    1  UNL1       -0.0610
     18 C           2.0000    0.3454    0.0000 C.ar    1  UNL1       -0.0610
     19 H           6.4188   -1.8300    0.0000 H       1  UNL1        0.0627
     20 H           7.8678    0.6575    0.0000 H       1  UNL1        0.0657
     21 H           2.9132   -1.8300    0.0000 H       1  UNL1        0.0625
     22 H           2.9132    1.4792    0.0000 H       1  UNL1        0.0625
     23 H           7.8841   -1.7353    0.0000 H       1  UNL1        0.0278
     24 H           8.7319   -1.5116    0.0000 H       1  UNL1        0.0278
     25 H           8.5082   -0.6638    0.0000 H       1  UNL1        0.0278
     26 H           1.4643   -1.0083    0.0000 H       1  UNL1        0.0618
     27 H           1.4643    0.6575    0.0000 H       1  UNL1        0.0618
     28 H           6.9478    2.1754    0.0000 H       1  UNL1        0.2922
@<TRIPOS>BOND
     1     1    11    1
     2     1    28    1
     3     2     8    2
     4     3     9    2
     5     4     5   ar
     6     4     8    1
     7     4    10   ar
     8     5     9    1
     9     5    11   ar
    10     6     7   ar
    11     6     8    1
    12     6    14   ar
    13     7     9    1
    14     7    15   ar
    15    10    12   ar
    16    10    19    1
    17    11    13   ar
    18    12    13   ar
    19    12    16    1
    20    13    20    1
    21    14    17   ar
    22    14    21    1
    23    15    18   ar
    24    15    22    1
    25    16    23    1
    26    16    24    1
    27    16    25    1
    28    17    18   ar
    29    17    26    1
    30    18    27    1
