@<TRIPOS>MOLECULE
IMPHY001100
 27 30 0 0 0
SMALL
GASTEIGER

@<TRIPOS>ATOM
      1 O           6.2962    0.7394    0.0000 O.2     1  UNL1       -0.4507
      2 O           4.5106    2.1137    0.0000 O.2     1  UNL1       -0.2833
      3 O           5.3692   -2.1137    0.0000 O.2     1  UNL1       -0.2864
      4 C           5.0091   -0.4195    0.0000 C.ar    1  UNL1        0.0762
      5 C           4.0150   -0.4170    0.0000 C.ar    1  UNL1        0.0004
      6 C           5.3181    0.5315    0.0000 C.ar    1  UNL1        0.1868
      7 C           3.7086    0.5287    0.0000 C.ar    1  UNL1        0.0333
      8 C           4.5124    1.1137    0.0000 C.2     1  UNL1        0.2292
      9 C           5.6782   -1.1627    0.0000 C.ar    1  UNL1        0.2009
     10 C           6.6564   -0.9548    0.0000 C.ar    1  UNL1        0.0646
     11 C           6.9654   -0.0037    0.0000 C.ar    1  UNL1        0.1394
     12 C           3.3334   -1.1965    0.0000 C.ar    1  UNL1       -0.0531
     13 C           2.6994    0.7605    0.0000 C.ar    1  UNL1       -0.0502
     14 C           7.3413   -1.7395    0.0000 C.ar    1  UNL1       -0.0474
     15 C           7.9808    0.2285    0.0000 C.ar    1  UNL1       -0.0186
     16 C           2.3191   -0.9881    0.0000 C.ar    1  UNL1       -0.0611
     17 C           2.0000   -0.0030    0.0000 C.ar    1  UNL1       -0.0610
     18 C           8.3618   -1.5308    0.0000 C.ar    1  UNL1       -0.0609
     19 C           8.6837   -0.5401    0.0000 C.ar    1  UNL1       -0.0582
     20 H           3.5313   -1.7840    0.0000 H       1  UNL1        0.0624
     21 H           2.5152    1.3525    0.0000 H       1  UNL1        0.0625
     22 H           7.1429   -2.3269    0.0000 H       1  UNL1        0.0626
     23 H           8.1655    0.8204    0.0000 H       1  UNL1        0.0654
     24 H           1.9056   -1.4501    0.0000 H       1  UNL1        0.0618
     25 H           1.3942    0.1287    0.0000 H       1  UNL1        0.0618
     26 H           8.7749   -1.9931    0.0000 H       1  UNL1        0.0618
     27 H           9.2897   -0.4089    0.0000 H       1  UNL1        0.0619
@<TRIPOS>BOND
     1     1     6   ar
     2     1    11   ar
     3     2     8    2
     4     3     9    2
     5     4     5    1
     6     4     6   ar
     7     4     9   ar
     8     5     7   ar
     9     5    12   ar
    10     6     8    1
    11     7     8    1
    12     7    13   ar
    13     9    10   ar
    14    10    11   ar
    15    10    14   ar
    16    11    15   ar
    17    12    16   ar
    18    12    20    1
    19    13    17   ar
    20    13    21    1
    21    14    18   ar
    22    14    22    1
    23    15    19   ar
    24    15    23    1
    25    16    17   ar
    26    16    24    1
    27    17    25    1
    28    18    19   ar
    29    18    26    1
    30    19    27    1
