@<TRIPOS>MOLECULE
IMPHY004780
 94 99 0 0 0
SMALL
GASTEIGER

@<TRIPOS>ATOM
      1 O           5.1459   -2.4413    0.0000 O.3     1  UNL1       -0.3313
      2 O           5.1396    4.6313    0.0000 O.3     1  UNL1       -0.3313
      3 O          10.3420   -4.4413    0.0000 O.3     1  UNL1       -0.3313
      4 O           6.8779   -2.4413    0.0000 O.3     1  UNL1       -0.4532
      5 O           5.9998    3.1280    0.0000 O.3     1  UNL1       -0.4606
      6 O           5.1459   -5.4413    0.0000 O.3     1  UNL1       -0.3864
      7 O           3.4138   -4.4413    0.0000 O.3     1  UNL1       -0.3865
      8 O           6.8779   -4.4413    0.0000 O.3     1  UNL1       -0.3829
      9 O           2.5357    3.1413    0.0000 O.3     1  UNL1       -0.3864
     10 O           2.5434    5.1413    0.0000 O.3     1  UNL1       -0.3865
     11 O          11.2081   -2.9413    0.0000 O.3     1  UNL1       -0.4608
     12 O          12.9401   -5.9413    0.0000 O.3     1  UNL1       -0.3864
     13 O          11.2081   -6.9413    0.0000 O.3     1  UNL1       -0.3865
     14 O           4.2639    2.1347    0.0000 O.3     1  UNL1       -0.3829
     15 O          12.9401   -3.9413    0.0000 O.3     1  UNL1       -0.3829
     16 O           2.5478   -2.9413    0.0000 O.3     1  UNL1       -0.3924
     17 O           5.1473    6.6313    0.0000 O.3     1  UNL1       -0.3924
     18 O           9.4760   -6.9413    0.0000 O.3     1  UNL1       -0.3924
     19 O           7.7440    0.0587    0.0000 O.2     1  UNL1       -0.4507
     20 O           5.1459   -1.4413    0.0000 O.2     1  UNL1       -0.2830
     21 O           4.2417    0.0556    0.0000 O.3     1  UNL1       -0.5058
     22 C           5.1459   -4.4413    0.0000 C.3     1  UNL1        0.1152
     23 C           4.2799   -3.9413    0.0000 C.3     1  UNL1        0.1120
     24 C           6.0119   -3.9413    0.0000 C.3     1  UNL1        0.1454
     25 C           4.2799   -2.9413    0.0000 C.3     1  UNL1        0.1140
     26 C           3.4037    3.6380    0.0000 C.3     1  UNL1        0.1152
     27 C           3.4075    4.6380    0.0000 C.3     1  UNL1        0.1120
     28 C          12.0741   -5.4413    0.0000 C.3     1  UNL1        0.1152
     29 C          11.2081   -5.9413    0.0000 C.3     1  UNL1        0.1120
     30 C           4.2678    3.1346    0.0000 C.3     1  UNL1        0.1454
     31 C           4.2755    5.1346    0.0000 C.3     1  UNL1        0.1140
     32 C           6.0119   -2.9413    0.0000 C.3     1  UNL1        0.2311
     33 C          12.0741   -4.4413    0.0000 C.3     1  UNL1        0.1454
     34 C          10.3420   -5.4413    0.0000 C.3     1  UNL1        0.1140
     35 C           5.1357    3.6313    0.0000 C.3     1  UNL1        0.2308
     36 C          11.2081   -3.9413    0.0000 C.3     1  UNL1        0.2308
     37 C           3.4138   -2.4413    0.0000 C.3     1  UNL1        0.0731
     38 C           4.2793    6.1346    0.0000 C.3     1  UNL1        0.0731
     39 C           9.4760   -5.9413    0.0000 C.3     1  UNL1        0.0731
     40 C           6.8779   -1.4413    0.0000 C.ar    1  UNL1        0.2138
     41 C           5.9960    2.1280    0.0000 C.ar    1  UNL1        0.1310
     42 C           7.7440   -0.9413    0.0000 C.ar    1  UNL1        0.1809
     43 C          10.3420   -2.4413    0.0000 C.ar    1  UNL1        0.1240
     44 C           6.0119    0.0587    0.0000 C.ar    1  UNL1        0.1092
     45 C           6.0119   -0.9413    0.0000 C.ar    1  UNL1        0.2382
     46 C           6.8779    0.5587    0.0000 C.ar    1  UNL1        0.1465
     47 C           6.8940    1.6002    0.0000 C.ar    1  UNL1        0.0235
     48 C           8.6100   -1.4413    0.0000 C.ar    1  UNL1        0.0213
     49 C           5.0939    1.6072    0.0000 C.ar    1  UNL1        0.0226
     50 C           5.1019    0.5656    0.0000 C.ar    1  UNL1        0.1348
     51 C           9.4760   -2.9413    0.0000 C.ar    1  UNL1       -0.0192
     52 C          10.3420   -1.4413    0.0000 C.ar    1  UNL1       -0.0192
     53 C           8.6100   -2.4413    0.0000 C.ar    1  UNL1       -0.0475
     54 C           9.4760   -0.9413    0.0000 C.ar    1  UNL1       -0.0475
     55 H           5.6828   -4.7513    0.0000 H       1  UNL1        0.0648
     56 H           4.2799   -4.5613    0.0000 H       1  UNL1        0.0647
     57 H           6.5488   -3.6313    0.0000 H       1  UNL1        0.0683
     58 H           4.2799   -2.3213    0.0000 H       1  UNL1        0.0647
     59 H           3.4013    3.0180    0.0000 H       1  UNL1        0.0648
     60 H           2.8694    4.3300    0.0000 H       1  UNL1        0.0647
     61 H          12.0741   -6.0613    0.0000 H       1  UNL1        0.0648
     62 H          10.6711   -6.2513    0.0000 H       1  UNL1        0.0647
     63 H           4.8035    2.8226    0.0000 H       1  UNL1        0.0683
     64 H           4.8136    5.4426    0.0000 H       1  UNL1        0.0647
     65 H           6.0119   -2.3213    0.0000 H       1  UNL1        0.1084
     66 H          12.0741   -3.8213    0.0000 H       1  UNL1        0.0683
     67 H           9.8051   -5.1313    0.0000 H       1  UNL1        0.0647
     68 H           5.6738    3.9392    0.0000 H       1  UNL1        0.1084
     69 H          10.6711   -3.6313    0.0000 H       1  UNL1        0.1084
     70 H           3.8124   -1.9663    0.0000 H       1  UNL1        0.0584
     71 H           3.0153   -1.9663    0.0000 H       1  UNL1        0.0584
     72 H           4.0695    6.7180    0.0000 H       1  UNL1        0.0584
     73 H           3.6684    6.0293    0.0000 H       1  UNL1        0.0584
     74 H           9.2640   -5.3587    0.0000 H       1  UNL1        0.0584
     75 H           8.8654   -6.0489    0.0000 H       1  UNL1        0.0584
     76 H           4.6090   -5.7513    0.0000 H       1  UNL1        0.2100
     77 H           3.4138   -5.0613    0.0000 H       1  UNL1        0.2100
     78 H           6.8779   -5.0613    0.0000 H       1  UNL1        0.2102
     79 H           2.0000    3.4534    0.0000 H       1  UNL1        0.2100
     80 H           2.5458    5.7613    0.0000 H       1  UNL1        0.2100
     81 H          12.9401   -6.5613    0.0000 H       1  UNL1        0.2100
     82 H          11.7450   -7.2513    0.0000 H       1  UNL1        0.2100
     83 H           3.7258    1.8267    0.0000 H       1  UNL1        0.2102
     84 H          13.4770   -4.2513    0.0000 H       1  UNL1        0.2102
     85 H           7.4345    1.9040    0.0000 H       1  UNL1        0.0691
     86 H           2.0109   -2.6313    0.0000 H       1  UNL1        0.2095
     87 H           5.1497    7.2513    0.0000 H       1  UNL1        0.2095
     88 H           4.5558    1.9151    0.0000 H       1  UNL1        0.0691
     89 H           8.9391   -7.2513    0.0000 H       1  UNL1        0.2095
     90 H           9.4760   -3.5613    0.0000 H       1  UNL1        0.0654
     91 H          10.8790   -1.1313    0.0000 H       1  UNL1        0.0654
     92 H           8.0730   -2.7513    0.0000 H       1  UNL1        0.0626
     93 H           9.4760   -0.3213    0.0000 H       1  UNL1        0.0626
     94 H           3.7012    0.3594    0.0000 H       1  UNL1        0.2922
@<TRIPOS>BOND
     1     1    25    1
     2     1    32    1
     3     2    31    1
     4     2    35    1
     5     3    34    1
     6     3    36    1
     7    32     4    1
     8     4    40    1
     9    35     5    1
    10     5    41    1
    11     6    22    1
    12     6    76    1
    13    23     7    1
    14     7    77    1
    15     8    24    1
    16     8    78    1
    17    26     9    1
    18     9    79    1
    19    27    10    1
    20    10    80    1
    21    36    11    1
    22    11    43    1
    23    28    12    1
    24    12    81    1
    25    29    13    1
    26    13    82    1
    27    14    30    1
    28    14    83    1
    29    15    33    1
    30    15    84    1
    31    16    37    1
    32    16    86    1
    33    17    38    1
    34    17    87    1
    35    18    39    1
    36    18    89    1
    37    19    42   ar
    38    19    46   ar
    39    20    45    2
    40    21    50    1
    41    21    94    1
    42    22    23    1
    43    22    24    1
    44    22    55    1
    45    23    25    1
    46    23    56    1
    47    24    32    1
    48    24    57    1
    49    25    37    1
    50    25    58    1
    51    26    27    1
    52    26    30    1
    53    26    59    1
    54    27    31    1
    55    27    60    1
    56    28    29    1
    57    28    33    1
    58    28    61    1
    59    29    34    1
    60    29    62    1
    61    30    35    1
    62    30    63    1
    63    31    38    1
    64    31    64    1
    65    32    65    1
    66    33    36    1
    67    33    66    1
    68    34    39    1
    69    34    67    1
    70    35    68    1
    71    36    69    1
    72    37    70    1
    73    37    71    1
    74    38    72    1
    75    38    73    1
    76    39    74    1
    77    39    75    1
    78    40    42   ar
    79    40    45   ar
    80    41    47   ar
    81    41    49   ar
    82    42    48    1
    83    43    51   ar
    84    43    52   ar
    85    44    45   ar
    86    44    46   ar
    87    44    50   ar
    88    46    47   ar
    89    47    85    1
    90    48    53   ar
    91    48    54   ar
    92    49    50   ar
    93    49    88    1
    94    51    53   ar
    95    51    90    1
    96    52    54   ar
    97    52    91    1
    98    53    92    1
    99    54    93    1
