@<TRIPOS>MOLECULE
IMPHY011458
 44 48 0 0 0
SMALL
GASTEIGER

@<TRIPOS>ATOM
      1 O           8.6639   -1.8584    0.0000 O.3     1  UNL1       -0.3323
      2 O           8.8652    0.0164    0.0000 O.3     1  UNL1       -0.4625
      3 O           6.0950   -1.9030    0.0000 O.3     1  UNL1       -0.3881
      4 O           5.5022    0.1488    0.0000 O.2     1  UNL1       -0.4542
      5 O           5.5138    3.2180    0.0000 O.2     1  UNL1       -0.2870
      6 C           7.4714   -0.7884    0.0000 C.3     1  UNL1        0.0821
      7 C           7.0726   -1.6925    0.0000 C.3     1  UNL1        0.0964
      8 C           7.8081   -2.3525    0.0000 C.3     1  UNL1        0.0945
      9 C           8.4601   -0.8914    0.0000 C.3     1  UNL1        0.2118
     10 C           7.2622    0.1835    0.0000 C.ar    1  UNL1        0.0488
     11 C           8.1282    0.6835    0.0000 C.ar    1  UNL1        0.1311
     12 C           8.3088   -3.2180    0.0000 C.3     1  UNL1       -0.0335
     13 C           7.1396   -3.0962    0.0000 C.3     1  UNL1       -0.0335
     14 C           6.3961    0.6835    0.0000 C.ar    1  UNL1        0.1464
     15 C           8.1282    1.6835    0.0000 C.ar    1  UNL1       -0.0186
     16 C           6.3961    1.6835    0.0000 C.ar    1  UNL1        0.0645
     17 C           7.2622    2.1835    0.0000 C.ar    1  UNL1       -0.0439
     18 C           5.5022    2.2181    0.0000 C.ar    1  UNL1        0.1931
     19 C           4.5961    0.6626    0.0000 C.ar    1  UNL1        0.1392
     20 C           4.5961    1.7043    0.0000 C.ar    1  UNL1        0.0287
     21 C           3.7320    0.1593    0.0000 C.ar    1  UNL1        0.0174
     22 C           2.8641    0.6560    0.0000 C.ar    1  UNL1       -0.0511
     23 C           3.7359   -0.8407    0.0000 C.ar    1  UNL1       -0.0511
     24 C           2.0000    0.1526    0.0000 C.ar    1  UNL1       -0.0611
     25 C           2.8718   -1.3440    0.0000 C.ar    1  UNL1       -0.0611
     26 C           2.0038   -0.8474    0.0000 C.ar    1  UNL1       -0.0617
     27 H           6.6258   -0.7021    0.0000 H       1  UNL1        0.0439
     28 H           6.9134   -2.2917    0.0000 H       1  UNL1        0.0630
     29 H           9.3053   -0.9814    0.0000 H       1  UNL1        0.1063
     30 H           7.7722   -3.5285    0.0000 H       1  UNL1        0.0258
     31 H           8.6193   -3.7547    0.0000 H       1  UNL1        0.0258
     32 H           8.8455   -2.9076    0.0000 H       1  UNL1        0.0258
     33 H           6.6785   -2.6817    0.0000 H       1  UNL1        0.0258
     34 H           6.7251   -3.5573    0.0000 H       1  UNL1        0.0258
     35 H           7.6007   -3.5106    0.0000 H       1  UNL1        0.0258
     36 H           5.9049   -2.4931    0.0000 H       1  UNL1        0.2099
     37 H           8.6651    1.9935    0.0000 H       1  UNL1        0.0654
     38 H           7.2622    2.8035    0.0000 H       1  UNL1        0.0627
     39 H           4.0604    2.0163    0.0000 H       1  UNL1        0.0693
     40 H           2.8617    1.2760    0.0000 H       1  UNL1        0.0625
     41 H           4.2740   -1.1486    0.0000 H       1  UNL1        0.0625
     42 H           1.4619    0.4606    0.0000 H       1  UNL1        0.0618
     43 H           2.8742   -1.9640    0.0000 H       1  UNL1        0.0618
     44 H           1.4681   -1.1594    0.0000 H       1  UNL1        0.0618
@<TRIPOS>BOND
     1     1     8    1
     2     1     9    1
     3     2     9    1
     4     2    11    1
     5     7     3    1
     6     3    36    1
     7     4    14   ar
     8     4    19   ar
     9     5    18    2
    10     6     7    1
    11     6     9    1
    12     6    10    1
    13     6    27    1
    14     7     8    1
    15     7    28    1
    16     8    12    1
    17     8    13    1
    18     9    29    1
    19    10    11   ar
    20    10    14   ar
    21    11    15   ar
    22    12    30    1
    23    12    31    1
    24    12    32    1
    25    13    33    1
    26    13    34    1
    27    13    35    1
    28    14    16   ar
    29    15    17   ar
    30    15    37    1
    31    16    17   ar
    32    16    18   ar
    33    17    38    1
    34    18    20   ar
    35    19    20   ar
    36    19    21    1
    37    20    39    1
    38    21    22   ar
    39    21    23   ar
    40    22    24   ar
    41    22    40    1
    42    23    25   ar
    43    23    41    1
    44    24    26   ar
    45    24    42    1
    46    25    26   ar
    47    25    43    1
    48    26    44    1
