@<TRIPOS>MOLECULE
IMPHY008554
 28 30 0 0 0
SMALL
GASTEIGER

@<TRIPOS>ATOM
      1 O           8.0321    0.6827    0.0000 O.3     1  UNL1       -0.4944
      2 O           7.0864   -2.2152    0.0000 O.2     1  UNL1       -0.2956
      3 N           4.5274    1.5952    0.0000 N.ar    1  UNL1       -0.3540
      4 C           5.0274    0.0564    0.0000 C.ar    1  UNL1        0.0083
      5 C           4.0274    0.0564    0.0000 C.ar    1  UNL1        0.0074
      6 C           5.3364    1.0074    0.0000 C.ar    1  UNL1        0.0510
      7 C           3.7183    1.0074    0.0000 C.ar    1  UNL1        0.0475
      8 C           5.7123   -0.7284    0.0000 C.ar    1  UNL1       -0.0383
      9 C           6.3518    1.2397    0.0000 C.ar    1  UNL1        0.0047
     10 C           6.7328   -0.5196    0.0000 C.ar    1  UNL1        0.0565
     11 C           7.0547    0.4710    0.0000 C.ar    1  UNL1        0.1322
     12 C           3.3424   -0.7284    0.0000 C.ar    1  UNL1       -0.0520
     13 C           2.7029    1.2397    0.0000 C.ar    1  UNL1       -0.0378
     14 C           2.3219   -0.5196    0.0000 C.ar    1  UNL1       -0.0611
     15 C           2.0000    0.4710    0.0000 C.ar    1  UNL1       -0.0598
     16 C           7.3991   -1.2654    0.0000 C.2     1  UNL1        0.1537
     17 C           8.3374    1.6349    0.0000 C.3     1  UNL1        0.0788
     18 H           4.5274    2.2152    0.0000 H       1  UNL1        0.1659
     19 H           5.5139   -1.3158    0.0000 H       1  UNL1        0.0632
     20 H           6.5365    1.8315    0.0000 H       1  UNL1        0.0675
     21 H           3.5408   -1.3158    0.0000 H       1  UNL1        0.0624
     22 H           2.5182    1.8315    0.0000 H       1  UNL1        0.0638
     23 H           1.9088   -0.9820    0.0000 H       1  UNL1        0.0618
     24 H           1.3940    0.6022    0.0000 H       1  UNL1        0.0618
     25 H           8.0060   -1.1388    0.0000 H       1  UNL1        0.1083
     26 H           8.9278    1.4456    0.0000 H       1  UNL1        0.0660
     27 H           8.5267    2.2253    0.0000 H       1  UNL1        0.0660
     28 H           7.7470    1.8242    0.0000 H       1  UNL1        0.0660
@<TRIPOS>BOND
     1     1    11    1
     2     1    17    1
     3     2    16    2
     4     3     6   ar
     5     3     7   ar
     6     3    18    1
     7     4     5   ar
     8     4     6   ar
     9     4     8   ar
    10     5     7   ar
    11     5    12   ar
    12     6     9   ar
    13     7    13   ar
    14     8    10   ar
    15     8    19    1
    16     9    11   ar
    17     9    20    1
    18    10    11   ar
    19    10    16    1
    20    12    14   ar
    21    12    21    1
    22    13    15   ar
    23    13    22    1
    24    14    15   ar
    25    14    23    1
    26    15    24    1
    27    16    25    1
    28    17    26    1
    29    17    27    1
    30    17    28    1
