@<TRIPOS>MOLECULE
IMPHY012495
 48 51 0 0 0
SMALL
GASTEIGER

@<TRIPOS>ATOM
      1 O           4.4428    2.4168    0.0000 O.3     1  UNL1       -0.4525
      2 O           3.7700   -2.1243    0.0000 O.3     1  UNL1       -0.4218
      3 O           2.9541    3.3858    0.0000 O.2     1  UNL1       -0.2502
      4 O           6.3840    1.4449    0.0000 O.2     1  UNL1       -0.2881
      5 O           2.0000   -2.1002    0.0000 O.2     1  UNL1       -0.2504
      6 O           5.5772   -3.0588    0.0000 O.3     1  UNL1       -0.5031
      7 C           3.7860    0.9449    0.0000 C.3     1  UNL1        0.0287
      8 C           3.7860   -0.0551    0.0000 C.3     1  UNL1        0.0149
      9 C           3.0490    1.6120    0.0000 C.3     1  UNL1        0.0696
     10 C           4.6520    1.4449    0.0000 C.3     1  UNL1        0.1696
     11 C           4.6520   -0.5551    0.0000 C.ar    1  UNL1        0.0161
     12 C           2.8760   -0.5619    0.0000 C.3     1  UNL1        0.0553
     13 C           2.9200    0.4449    0.0000 C.3     1  UNL1       -0.0545
     14 C           5.5180   -0.0551    0.0000 C.ar    1  UNL1        0.0289
     15 C           3.4541    2.5198    0.0000 C.2     1  UNL1        0.3139
     16 C           5.5180    0.9449    0.0000 C.2     1  UNL1        0.2041
     17 C           2.1361    2.0203    0.0000 C.3     1  UNL1       -0.0492
     18 C           2.3786    0.8700    0.0000 C.3     1  UNL1       -0.0492
     19 C           4.6681   -1.5966    0.0000 C.ar    1  UNL1        0.1774
     20 C           2.8680   -1.6035    0.0000 C.2     1  UNL1        0.3133
     21 C           6.3775   -0.5498    0.0000 C.ar    1  UNL1       -0.0437
     22 C           5.5452   -2.0593    0.0000 C.ar    1  UNL1        0.1630
     23 C           6.3909   -1.5414    0.0000 C.ar    1  UNL1        0.0010
     24 C           7.2666   -2.0243    0.0000 C.3     1  UNL1       -0.0179
     25 C           8.1226   -1.5074    0.0000 C.3     1  UNL1       -0.0585
     26 C           7.2863   -3.0241    0.0000 C.3     1  UNL1       -0.0585
     27 H           4.3229    0.6349    0.0000 H       1  UNL1        0.0360
     28 H           5.3390    1.9454    0.0000 H       1  UNL1        0.0822
     29 H           2.6714    0.0234    0.0000 H       1  UNL1        0.0386
     30 H           2.2643   -0.6633    0.0000 H       1  UNL1        0.0386
     31 H           3.2300    0.9819    0.0000 H       1  UNL1        0.0238
     32 H           2.3830    0.7549    0.0000 H       1  UNL1        0.0238
     33 H           2.6100   -0.0920    0.0000 H       1  UNL1        0.0238
     34 H           2.3893    2.5863    0.0000 H       1  UNL1        0.0240
     35 H           1.5702    2.2735    0.0000 H       1  UNL1        0.0240
     36 H           1.8830    1.4544    0.0000 H       1  UNL1        0.0240
     37 H           1.9185    1.2857    0.0000 H       1  UNL1        0.0240
     38 H           1.9629    0.4100    0.0000 H       1  UNL1        0.0240
     39 H           2.8386    0.4544    0.0000 H       1  UNL1        0.0240
     40 H           6.9121   -0.2359    0.0000 H       1  UNL1        0.0629
     41 H           7.8096   -2.3237    0.0000 H       1  UNL1        0.0345
     42 H           5.0504   -3.3858    0.0000 H       1  UNL1        0.2923
     43 H           8.4431   -2.0381    0.0000 H       1  UNL1        0.0235
     44 H           8.6534   -1.1868    0.0000 H       1  UNL1        0.0235
     45 H           7.8021   -0.9766    0.0000 H       1  UNL1        0.0235
     46 H           6.6664   -3.0363    0.0000 H       1  UNL1        0.0235
     47 H           7.2985   -3.6440    0.0000 H       1  UNL1        0.0235
     48 H           7.9062   -3.0119    0.0000 H       1  UNL1        0.0235
@<TRIPOS>BOND
     1     1    10    1
     2     1    15    1
     3     2    19    1
     4     2    20    1
     5     3    15    2
     6     4    16    2
     7     5    20    2
     8     6    22    1
     9     6    42    1
    10     7     8    1
    11     7     9    1
    12     7    10    1
    13     7    27    1
    14     8    11    1
    15     8    12    1
    16     8    13    1
    17     9    15    1
    18     9    17    1
    19     9    18    1
    20    10    16    1
    21    10    28    1
    22    11    14   ar
    23    11    19   ar
    24    12    20    1
    25    12    29    1
    26    12    30    1
    27    13    31    1
    28    13    32    1
    29    13    33    1
    30    14    16    1
    31    14    21   ar
    32    17    34    1
    33    17    35    1
    34    17    36    1
    35    18    37    1
    36    18    38    1
    37    18    39    1
    38    19    22   ar
    39    21    23   ar
    40    21    40    1
    41    22    23   ar
    42    23    24    1
    43    24    25    1
    44    24    26    1
    45    24    41    1
    46    25    43    1
    47    25    44    1
    48    25    45    1
    49    26    46    1
    50    26    47    1
    51    26    48    1
