@<TRIPOS>MOLECULE
IMPHY004053
 105 110 0 0 0
SMALL
GASTEIGER

@<TRIPOS>ATOM
      1 O          10.8828   -2.1824    0.0000 O.3     1  UNL1       -0.4534
      2 O           5.4679   -2.2032    0.0000 O.3     1  UNL1       -0.4576
      3 O          10.0342   -3.6923    0.0000 O.2     1  UNL1       -0.2449
      4 O           4.6077   -0.6999    0.0000 O.2     1  UNL1       -0.2450
      5 C          10.8610    0.8491    0.0000 C.3     1  UNL1       -0.0258
      6 C          10.8610   -0.1509    0.0000 C.3     1  UNL1       -0.0286
      7 C           9.9950   -0.6509    0.0000 C.3     1  UNL1        0.0068
      8 C           9.1290   -0.1509    0.0000 C.3     1  UNL1       -0.0252
      9 C          11.8072    1.1538    0.0000 C.3     1  UNL1       -0.0328
     10 C           9.9950    1.3491    0.0000 C.3     1  UNL1       -0.0468
     11 C           8.2190   -0.6577    0.0000 C.3     1  UNL1       -0.0075
     12 C          11.8072   -0.4556    0.0000 C.3     1  UNL1       -0.0490
     13 C           9.1290    0.8491    0.0000 C.3     1  UNL1       -0.0485
     14 C          12.3908    0.3491    0.0000 C.3     1  UNL1       -0.0492
     15 C          10.0110   -1.6924    0.0000 C.3     1  UNL1        0.1252
     16 C          12.1179    2.1044    0.0000 C.3     1  UNL1       -0.0405
     17 C          10.8610    1.8491    0.0000 C.3     1  UNL1       -0.0590
     18 C           8.2109   -1.6994    0.0000 C.2     1  UNL1       -0.0604
     19 C           7.2921   -0.0937    0.0000 C.3     1  UNL1       -0.0403
     20 C           9.1130   -2.2202    0.0000 C.2     1  UNL1       -0.0438
     21 C           8.2267    0.3422    0.0000 C.3     1  UNL1       -0.0556
     22 C           7.2755   -2.2491    0.0000 C.3     1  UNL1        0.0062
     23 C           6.3442   -0.6216    0.0000 C.3     1  UNL1       -0.0146
     24 C          13.0964    2.3106    0.0000 C.3     1  UNL1       -0.0499
     25 C           6.3359   -1.7066    0.0000 C.3     1  UNL1        0.1071
     26 C          11.4501    2.8486    0.0000 C.3     1  UNL1       -0.0621
     27 C          13.4071    3.2611    0.0000 C.3     1  UNL1       -0.0497
     28 C          14.3856    3.4673    0.0000 C.3     1  UNL1       -0.0389
     29 C          10.8944   -3.1823    0.0000 C.2     1  UNL1        0.3398
     30 C          14.6962    4.4178    0.0000 C.3     1  UNL1       -0.0439
     31 C          15.0534    2.7230    0.0000 C.3     1  UNL1       -0.0528
     32 C          11.7661   -3.6722    0.0000 C.ar    1  UNL1        0.0590
     33 C           4.6038   -1.6999    0.0000 C.2     1  UNL1        0.3395
     34 C          15.6747    4.6241    0.0000 C.3     1  UNL1       -0.0624
     35 C          14.0284    5.1621    0.0000 C.3     1  UNL1       -0.0624
     36 C          16.0319    2.9292    0.0000 C.3     1  UNL1       -0.0650
     37 C           3.7359   -2.1966    0.0000 C.ar    1  UNL1        0.0590
     38 C          11.7777   -4.6722    0.0000 C.ar    1  UNL1       -0.0478
     39 C          12.6263   -3.1623    0.0000 C.ar    1  UNL1       -0.0478
     40 C          12.6494   -5.1621    0.0000 C.ar    1  UNL1       -0.0610
     41 C          13.4980   -3.6522    0.0000 C.ar    1  UNL1       -0.0610
     42 C           2.8718   -1.6932    0.0000 C.ar    1  UNL1       -0.0478
     43 C           3.7320   -3.1965    0.0000 C.ar    1  UNL1       -0.0478
     44 C          13.5096   -4.6522    0.0000 C.ar    1  UNL1       -0.0617
     45 C           2.0038   -2.1899    0.0000 C.ar    1  UNL1       -0.0610
     46 C           2.8641   -3.6932    0.0000 C.ar    1  UNL1       -0.0610
     47 C           2.0000   -3.1899    0.0000 C.ar    1  UNL1       -0.0617
     48 H          10.9510   -0.9961    0.0000 H       1  UNL1        0.0310
     49 H          10.7344   -1.0702    0.0000 H       1  UNL1        0.0345
     50 H           9.8651    0.2741    0.0000 H       1  UNL1        0.0313
     51 H          12.6469    1.2857    0.0000 H       1  UNL1        0.0309
     52 H          10.3935    1.8240    0.0000 H       1  UNL1        0.0271
     53 H           9.5965    1.8240    0.0000 H       1  UNL1        0.0271
     54 H          11.5562   -1.0225    0.0000 H       1  UNL1        0.0268
     55 H          12.3446   -0.7649    0.0000 H       1  UNL1        0.0268
     56 H           8.9169    1.4317    0.0000 H       1  UNL1        0.0268
     57 H           8.5184    0.7414    0.0000 H       1  UNL1        0.0268
     58 H          12.8517   -0.0656    0.0000 H       1  UNL1        0.0268
     59 H          12.8517    0.7638    0.0000 H       1  UNL1        0.0268
     60 H          10.5438   -1.3752    0.0000 H       1  UNL1        0.0782
     61 H          12.3105    2.6937    0.0000 H       1  UNL1        0.0301
     62 H          11.4810    1.8491    0.0000 H       1  UNL1        0.0235
     63 H          10.8610    2.4691    0.0000 H       1  UNL1        0.0235
     64 H          10.2410    1.8491    0.0000 H       1  UNL1        0.0235
     65 H           7.7003    0.3730    0.0000 H       1  UNL1        0.0275
     66 H           6.9022    0.3884    0.0000 H       1  UNL1        0.0275
     67 H           9.1154   -2.8402    0.0000 H       1  UNL1        0.0608
     68 H           8.8466    0.3374    0.0000 H       1  UNL1        0.0238
     69 H           8.2314    0.9622    0.0000 H       1  UNL1        0.0238
     70 H           7.6067    0.3470    0.0000 H       1  UNL1        0.0238
     71 H           6.8782   -2.7250    0.0000 H       1  UNL1        0.0346
     72 H           7.6765   -2.7220    0.0000 H       1  UNL1        0.0346
     73 H           6.1397   -0.0363    0.0000 H       1  UNL1        0.0301
     74 H           5.7326   -0.7230    0.0000 H       1  UNL1        0.0301
     75 H          13.1170    1.6909    0.0000 H       1  UNL1        0.0268
     76 H          13.7102    2.2232    0.0000 H       1  UNL1        0.0268
     77 H           6.3347   -2.3266    0.0000 H       1  UNL1        0.0737
     78 H          11.9115    3.2627    0.0000 H       1  UNL1        0.0233
     79 H          11.0360    3.3101    0.0000 H       1  UNL1        0.0233
     80 H          10.9886    2.4346    0.0000 H       1  UNL1        0.0233
     81 H          13.3865    3.8808    0.0000 H       1  UNL1        0.0268
     82 H          12.7932    3.3484    0.0000 H       1  UNL1        0.0268
     83 H          13.9715    3.9288    0.0000 H       1  UNL1        0.0303
     84 H          15.1103    3.9564    0.0000 H       1  UNL1        0.0298
     85 H          14.5271    2.3954    0.0000 H       1  UNL1        0.0265
     86 H          15.2847    2.1478    0.0000 H       1  UNL1        0.0265
     87 H          15.8026    4.0174    0.0000 H       1  UNL1        0.0232
     88 H          16.2814    4.7519    0.0000 H       1  UNL1        0.0232
     89 H          15.5469    5.2307    0.0000 H       1  UNL1        0.0232
     90 H          14.4899    5.5762    0.0000 H       1  UNL1        0.0232
     91 H          13.6143    5.6236    0.0000 H       1  UNL1        0.0232
     92 H          13.5669    4.7481    0.0000 H       1  UNL1        0.0232
     93 H          16.1598    2.3226    0.0000 H       1  UNL1        0.0230
     94 H          16.6386    3.0571    0.0000 H       1  UNL1        0.0230
     95 H          15.9041    3.5359    0.0000 H       1  UNL1        0.0230
     96 H          11.2444   -4.9884    0.0000 H       1  UNL1        0.0626
     97 H          12.6191   -2.5423    0.0000 H       1  UNL1        0.0626
     98 H          12.6566   -5.7821    0.0000 H       1  UNL1        0.0618
     99 H          14.0314   -3.3360    0.0000 H       1  UNL1        0.0618
    100 H           2.8742   -1.0732    0.0000 H       1  UNL1        0.0626
    101 H           4.2678   -3.5086    0.0000 H       1  UNL1        0.0626
    102 H          14.0501   -4.9559    0.0000 H       1  UNL1        0.0618
    103 H           1.4681   -1.8778    0.0000 H       1  UNL1        0.0618
    104 H           2.8617   -4.3132    0.0000 H       1  UNL1        0.0618
    105 H           1.4619   -3.4978    0.0000 H       1  UNL1        0.0618
@<TRIPOS>BOND
     1    15     1    1
     2     1    29    1
     3    25     2    1
     4     2    33    1
     5     3    29    2
     6     4    33    2
     7     5     6    1
     8     5     9    1
     9     5    10    1
    10     5    17    1
    11     6     7    1
    12     6    12    1
    13     6    48    1
    14     7     8    1
    15     7    15    1
    16     7    49    1
    17     8    11    1
    18     8    13    1
    19     8    50    1
    20     9    14    1
    21     9    16    1
    22     9    51    1
    23    10    13    1
    24    10    52    1
    25    10    53    1
    26    11    18    1
    27    11    19    1
    28    11    21    1
    29    12    14    1
    30    12    54    1
    31    12    55    1
    32    13    56    1
    33    13    57    1
    34    14    58    1
    35    14    59    1
    36    15    20    1
    37    15    60    1
    38    16    24    1
    39    16    26    1
    40    16    61    1
    41    17    62    1
    42    17    63    1
    43    17    64    1
    44    18    20    2
    45    18    22    1
    46    19    23    1
    47    19    65    1
    48    19    66    1
    49    20    67    1
    50    21    68    1
    51    21    69    1
    52    21    70    1
    53    22    25    1
    54    22    71    1
    55    22    72    1
    56    23    25    1
    57    23    73    1
    58    23    74    1
    59    24    27    1
    60    24    75    1
    61    24    76    1
    62    25    77    1
    63    26    78    1
    64    26    79    1
    65    26    80    1
    66    28    27    1
    67    27    81    1
    68    27    82    1
    69    28    30    1
    70    28    31    1
    71    28    83    1
    72    29    32    1
    73    30    34    1
    74    30    35    1
    75    30    84    1
    76    31    36    1
    77    31    85    1
    78    31    86    1
    79    32    38   ar
    80    32    39   ar
    81    33    37    1
    82    34    87    1
    83    34    88    1
    84    34    89    1
    85    35    90    1
    86    35    91    1
    87    35    92    1
    88    36    93    1
    89    36    94    1
    90    36    95    1
    91    37    42   ar
    92    37    43   ar
    93    38    40   ar
    94    38    96    1
    95    39    41   ar
    96    39    97    1
    97    40    44   ar
    98    40    98    1
    99    41    44   ar
   100    41    99    1
   101    42    45   ar
   102    42   100    1
   103    43    46   ar
   104    43   101    1
   105    44   102    1
   106    45    47   ar
   107    45   103    1
   108    46    47   ar
   109    46   104    1
   110    47   105    1
