@<TRIPOS>MOLECULE
IMPHY012331
 46 50 0 0 0
SMALL
GASTEIGER

@<TRIPOS>ATOM
      1 O           5.7835    4.2023    0.0000 O.3     1  UNL1       -0.4575
      2 O           7.6774    2.6283    0.0000 O.3     1  UNL1       -0.3732
      3 O           3.1694    2.6330    0.0000 O.2     1  UNL1       -0.2672
      4 O           7.5535    4.1781    0.0000 O.2     1  UNL1       -0.2472
      5 O           2.4181   -3.2939    0.0000 O.3     1  UNL1       -0.4945
      6 N           4.0355    1.1330    0.0000 N.ar    1  UNL1       -0.3019
      7 N           5.3130   -1.1675    0.0000 N.ar    1  UNL1       -0.2448
      8 C           6.6775    2.6399    0.0000 C.3     1  UNL1        0.1877
      9 C           5.7675    2.1330    0.0000 C.ar    1  UNL1        0.0082
     10 C           4.9015    0.6330    0.0000 C.ar    1  UNL1        0.0713
     11 C           4.9015    2.6330    0.0000 C.ar    1  UNL1        0.0606
     12 C           3.2984    0.4660    0.0000 C.3     1  UNL1        0.0539
     13 C           5.7675    1.1330    0.0000 C.ar    1  UNL1       -0.0290
     14 C           3.7036   -0.4418    0.0000 C.ar    1  UNL1        0.0004
     15 C           4.6923   -0.3388    0.0000 C.ar    1  UNL1        0.0929
     16 C           4.0355    2.1330    0.0000 C.ar    1  UNL1        0.2589
     17 C           7.1675    1.7681    0.0000 C.3     1  UNL1       -0.0121
     18 C           4.8854    3.6746    0.0000 C.3     1  UNL1        0.1230
     19 C           6.6856    3.6815    0.0000 C.2     1  UNL1        0.3441
     20 C           3.2671   -1.3808    0.0000 C.ar    1  UNL1       -0.0421
     21 C           3.8685   -2.2237    0.0000 C.ar    1  UNL1        0.0424
     22 C           6.6575    0.9080    0.0000 C.3     1  UNL1       -0.0618
     23 C           4.8984   -2.1163    0.0000 C.ar    1  UNL1        0.0752
     24 C           3.4138   -3.2017    0.0000 C.ar    1  UNL1        0.1292
     25 C           5.5450   -2.9796    0.0000 C.ar    1  UNL1       -0.0355
     26 C           4.0403   -4.0797    0.0000 C.ar    1  UNL1       -0.0192
     27 C           5.1130   -3.9679    0.0000 C.ar    1  UNL1       -0.0563
     28 C           2.0000   -4.2023    0.0000 C.3     1  UNL1        0.0788
     29 H           2.9330    0.9668    0.0000 H       1  UNL1        0.0543
     30 H           2.7620    0.1552    0.0000 H       1  UNL1        0.0543
     31 H           6.3044    0.8230    0.0000 H       1  UNL1        0.0643
     32 H           7.6378    1.3642    0.0000 H       1  UNL1        0.0299
     33 H           7.6470    2.1612    0.0000 H       1  UNL1        0.0299
     34 H           4.6674    4.2550    0.0000 H       1  UNL1        0.0750
     35 H           4.2763    3.5591    0.0000 H       1  UNL1        0.0750
     36 H           2.6497   -1.4379    0.0000 H       1  UNL1        0.0629
     37 H           6.1242    1.2242    0.0000 H       1  UNL1        0.0231
     38 H           6.3413    0.3746    0.0000 H       1  UNL1        0.0231
     39 H           7.1908    0.5918    0.0000 H       1  UNL1        0.0231
     40 H           7.9812    2.0878    0.0000 H       1  UNL1        0.2113
     41 H           6.1608   -2.9082    0.0000 H       1  UNL1        0.0639
     42 H           3.7854   -4.6449    0.0000 H       1  UNL1        0.0654
     43 H           5.4790   -4.4684    0.0000 H       1  UNL1        0.0619
     44 H           1.4368   -3.9431    0.0000 H       1  UNL1        0.0660
     45 H           1.7408   -4.7655    0.0000 H       1  UNL1        0.0660
     46 H           2.5632   -4.4615    0.0000 H       1  UNL1        0.0660
@<TRIPOS>BOND
     1     1    18    1
     2     1    19    1
     3     8     2    1
     4     2    40    1
     5     3    16    2
     6     4    19    2
     7     5    24    1
     8     5    28    1
     9     6    10   ar
    10     6    12    1
    11     6    16   ar
    12     7    15   ar
    13     7    23   ar
    14     8     9    1
    15     8    17    1
    16     8    19    1
    17     9    11   ar
    18     9    13   ar
    19    10    13   ar
    20    10    15    1
    21    11    16   ar
    22    11    18    1
    23    12    14    1
    24    12    29    1
    25    12    30    1
    26    13    31    1
    27    14    15   ar
    28    14    20   ar
    29    17    22    1
    30    17    32    1
    31    17    33    1
    32    18    34    1
    33    18    35    1
    34    20    21   ar
    35    20    36    1
    36    21    23   ar
    37    21    24   ar
    38    22    37    1
    39    22    38    1
    40    22    39    1
    41    23    25   ar
    42    24    26   ar
    43    25    27   ar
    44    25    41    1
    45    26    27   ar
    46    26    42    1
    47    27    43    1
    48    28    44    1
    49    28    45    1
    50    28    46    1
