@<TRIPOS>MOLECULE
IMPHY004363
 42 45 0 0 0
SMALL
GASTEIGER

@<TRIPOS>ATOM
      1 O          10.4728   -1.8578    0.0000 O.3     1  UNL1       -0.4837
      2 O           6.9006   -2.0877    0.0000 O.2     1  UNL1       -0.4618
      3 O           8.6605    0.9469    0.0000 O.3     1  UNL1       -0.5055
      4 O           6.9121    0.9815    0.0000 O.2     1  UNL1       -0.2863
      5 O           6.0022    1.4677    0.0000 O.3     1  UNL1       -0.5060
      6 O           2.5381    1.4811    0.0000 O.3     1  UNL1       -0.5066
      7 C          11.0564   -1.0531    0.0000 C.3     1  UNL1        0.1249
      8 C          10.4728   -0.2483    0.0000 C.3     1  UNL1        0.0204
      9 C           9.5266   -0.5531    0.0000 C.ar    1  UNL1        0.0404
     10 C           9.5266   -1.5531    0.0000 C.ar    1  UNL1        0.1317
     11 C           8.6605   -0.0531    0.0000 C.ar    1  UNL1        0.1380
     12 C           7.7945   -0.5531    0.0000 C.ar    1  UNL1        0.1063
     13 C          12.0564   -1.0531    0.0000 C.2     1  UNL1       -0.0395
     14 C           8.6605   -2.0531    0.0000 C.ar    1  UNL1        0.0236
     15 C           7.7945   -1.5531    0.0000 C.ar    1  UNL1        0.1454
     16 C           6.9006   -0.0184    0.0000 C.ar    1  UNL1        0.2038
     17 C           5.9945   -0.5323    0.0000 C.ar    1  UNL1        0.0679
     18 C          12.5564   -1.9191    0.0000 C.3     1  UNL1       -0.0406
     19 C           5.9945   -1.5739    0.0000 C.ar    1  UNL1        0.1040
     20 C           5.1304   -0.0289    0.0000 C.ar    1  UNL1        0.0304
     21 C          12.5564   -0.1870    0.0000 C.2     1  UNL1       -0.0962
     22 C           5.1343    0.9711    0.0000 C.ar    1  UNL1        0.1282
     23 C           4.2625   -0.5256    0.0000 C.ar    1  UNL1       -0.0469
     24 C           4.2702    1.4744    0.0000 C.ar    1  UNL1        0.0219
     25 C           3.3984   -0.0222    0.0000 C.ar    1  UNL1       -0.0194
     26 C           3.4022    0.9778    0.0000 C.ar    1  UNL1        0.1204
     27 H          11.3381   -1.6054    0.0000 H       1  UNL1        0.0784
     28 H          11.0102    0.0609    0.0000 H       1  UNL1        0.0355
     29 H          10.2217    0.3186    0.0000 H       1  UNL1        0.0355
     30 H           8.6605   -2.6731    0.0000 H       1  UNL1        0.0691
     31 H          12.0194   -2.2291    0.0000 H       1  UNL1        0.0275
     32 H          12.8664   -2.4560    0.0000 H       1  UNL1        0.0275
     33 H          13.0933   -1.6091    0.0000 H       1  UNL1        0.0275
     34 H           5.4588   -1.8860    0.0000 H       1  UNL1        0.1037
     35 H          13.1764   -0.1870    0.0000 H       1  UNL1        0.0535
     36 H          12.2464    0.3499    0.0000 H       1  UNL1        0.0535
     37 H           9.1975    1.2569    0.0000 H       1  UNL1        0.2922
     38 H           4.2601   -1.1456    0.0000 H       1  UNL1        0.0626
     39 H           4.2726    2.0944    0.0000 H       1  UNL1        0.0691
     40 H           2.8602   -0.3302    0.0000 H       1  UNL1        0.0654
     41 H           6.0046    2.0877    0.0000 H       1  UNL1        0.2922
     42 H           2.0000    1.1732    0.0000 H       1  UNL1        0.2921
@<TRIPOS>BOND
     1     1     7    1
     2     1    10    1
     3     2    15   ar
     4     2    19   ar
     5     3    11    1
     6     3    37    1
     7     4    16    2
     8     5    22    1
     9     5    41    1
    10     6    26    1
    11     6    42    1
    12     7     8    1
    13     7    13    1
    14     7    27    1
    15     8     9    1
    16     8    28    1
    17     8    29    1
    18     9    10   ar
    19     9    11   ar
    20    10    14   ar
    21    11    12   ar
    22    12    15   ar
    23    12    16   ar
    24    13    18    1
    25    13    21    2
    26    14    15   ar
    27    14    30    1
    28    16    17   ar
    29    17    19   ar
    30    17    20    1
    31    18    31    1
    32    18    32    1
    33    18    33    1
    34    19    34    1
    35    20    22   ar
    36    20    23   ar
    37    21    35    1
    38    21    36    1
    39    22    24   ar
    40    23    25   ar
    41    23    38    1
    42    24    26   ar
    43    24    39    1
    44    25    26   ar
    45    25    40    1
