@<TRIPOS>MOLECULE
IMPHY005600
 32 34 0 0 0
SMALL
GASTEIGER

@<TRIPOS>ATOM
      1 O           6.3981   -0.9254    0.0000 O.2     1  UNL1       -0.4544
      2 O           2.8680   -0.9495    0.0000 O.3     1  UNL1       -0.4949
      3 O           4.6497    2.1092    0.0000 O.3     1  UNL1       -0.5058
      4 O           6.3981    2.0746    0.0000 O.2     1  UNL1       -0.2869
      5 C           5.5320    0.5746    0.0000 C.ar    1  UNL1        0.1055
      6 C           5.5320   -0.4254    0.0000 C.ar    1  UNL1        0.1462
      7 C           7.2641   -0.4254    0.0000 C.ar    1  UNL1        0.1392
      8 C           6.3981    1.0746    0.0000 C.ar    1  UNL1        0.1966
      9 C           4.6381    1.1093    0.0000 C.ar    1  UNL1        0.1347
     10 C           4.6381   -0.9601    0.0000 C.ar    1  UNL1        0.0233
     11 C           8.1301   -0.9254    0.0000 C.ar    1  UNL1        0.0174
     12 C           7.2641    0.5746    0.0000 C.ar    1  UNL1        0.0288
     13 C           3.7320   -0.4462    0.0000 C.ar    1  UNL1        0.1271
     14 C           3.7320    0.5954    0.0000 C.ar    1  UNL1        0.0225
     15 C           8.1301   -1.9254    0.0000 C.ar    1  UNL1       -0.0511
     16 C           8.9962   -0.4254    0.0000 C.ar    1  UNL1       -0.0511
     17 C           8.9962   -2.4254    0.0000 C.ar    1  UNL1       -0.0611
     18 C           9.8622   -0.9254    0.0000 C.ar    1  UNL1       -0.0611
     19 C           9.8622   -1.9254    0.0000 C.ar    1  UNL1       -0.0617
     20 C           2.0000   -0.4529    0.0000 C.3     1  UNL1        0.0788
     21 H           4.6453   -1.5800    0.0000 H       1  UNL1        0.0691
     22 H           7.8010    0.8846    0.0000 H       1  UNL1        0.0693
     23 H           3.1963    0.9075    0.0000 H       1  UNL1        0.0691
     24 H           7.5932   -2.2354    0.0000 H       1  UNL1        0.0625
     25 H           8.9962    0.1946    0.0000 H       1  UNL1        0.0625
     26 H           8.9962   -3.0454    0.0000 H       1  UNL1        0.0618
     27 H          10.3991   -0.6154    0.0000 H       1  UNL1        0.0618
     28 H          10.3991   -2.2354    0.0000 H       1  UNL1        0.0618
     29 H           4.1164    2.4254    0.0000 H       1  UNL1        0.2922
     30 H           2.3079    0.0852    0.0000 H       1  UNL1        0.0660
     31 H           1.4619   -0.1450    0.0000 H       1  UNL1        0.0660
     32 H           1.6921   -0.9910    0.0000 H       1  UNL1        0.0660
@<TRIPOS>BOND
     1     1     6   ar
     2     1     7   ar
     3     2    13    1
     4     2    20    1
     5     3     9    1
     6     3    29    1
     7     4     8    2
     8     5     6   ar
     9     5     8   ar
    10     5     9   ar
    11     6    10   ar
    12     7    11    1
    13     7    12   ar
    14     8    12   ar
    15     9    14   ar
    16    10    13   ar
    17    10    21    1
    18    11    15   ar
    19    11    16   ar
    20    12    22    1
    21    13    14   ar
    22    14    23    1
    23    15    17   ar
    24    15    24    1
    25    16    18   ar
    26    16    25    1
    27    17    19   ar
    28    17    26    1
    29    18    19   ar
    30    18    27    1
    31    19    28    1
    32    20    30    1
    33    20    31    1
    34    20    32    1
