@<TRIPOS>MOLECULE
IMPHY003551
 22 23 0 0 0
SMALL
GASTEIGER

@<TRIPOS>ATOM
      1 CL          2.0000   -0.8246    0.0000 Cl      1  UNL1       -0.0792
      2 O           5.4804   -1.8592    0.0000 O.3     1  UNL1       -0.5060
      3 O           3.7320    2.1754    0.0000 O.2     1  UNL1       -0.2869
      4 O           3.7320   -1.8246    0.0000 O.2     1  UNL1       -0.2856
      5 C           4.5981    0.6754    0.0000 C.ar    1  UNL1        0.0363
      6 C           4.5981   -0.3246    0.0000 C.ar    1  UNL1        0.0753
      7 C           2.8660    0.6754    0.0000 C.2     1  UNL1        0.0188
      8 C           3.7320    1.1754    0.0000 C.2     1  UNL1        0.1912
      9 C           3.7320   -0.8246    0.0000 C.2     1  UNL1        0.2088
     10 C           2.8660   -0.3246    0.0000 C.2     1  UNL1        0.0948
     11 C           5.4920   -0.8593    0.0000 C.ar    1  UNL1        0.1284
     12 C           5.4920    1.2100    0.0000 C.ar    1  UNL1       -0.0500
     13 C           6.3981   -0.3454    0.0000 C.ar    1  UNL1       -0.0194
     14 C           2.0000    1.1754    0.0000 C.3     1  UNL1       -0.0345
     15 C           6.3981    0.6962    0.0000 C.ar    1  UNL1       -0.0576
     16 H           5.4848    1.8300    0.0000 H       1  UNL1        0.0625
     17 H           2.3100    1.7123    0.0000 H       1  UNL1        0.0279
     18 H           1.4631    1.4854    0.0000 H       1  UNL1        0.0279
     19 H           1.6900    0.6385    0.0000 H       1  UNL1        0.0279
     20 H           6.9338   -0.6575    0.0000 H       1  UNL1        0.0654
     21 H           6.9338    1.0083    0.0000 H       1  UNL1        0.0619
     22 H           6.0138   -2.1754    0.0000 H       1  UNL1        0.2922
@<TRIPOS>BOND
     1     1    10    1
     2     2    11    1
     3     2    22    1
     4     3     8    2
     5     4     9    2
     6     5     6   ar
     7     5     8    1
     8     5    12   ar
     9     6     9    1
    10     6    11   ar
    11     7     8    1
    12     7    10    2
    13     7    14    1
    14     9    10    1
    15    11    13   ar
    16    12    15   ar
    17    12    16    1
    18    13    15   ar
    19    13    20    1
    20    14    17    1
    21    14    18    1
    22    14    19    1
    23    15    21    1
