@<TRIPOS>MOLECULE
IMPHY013650
 103 109 0 0 0
SMALL
GASTEIGER

@<TRIPOS>ATOM
      1 O          11.2303    2.1646    0.0000 O.3     1  UNL1       -0.3877
      2 O           7.7701    1.1512    0.0000 O.3     1  UNL1       -0.3915
      3 O           9.4651   -3.0390    0.0000 O.3     1  UNL1       -0.3454
      4 O           8.3679    6.3490    0.0000 O.3     1  UNL1       -0.4571
      5 O           7.7331   -3.0390    0.0000 O.3     1  UNL1       -0.3431
      6 O           6.6476    5.8841    0.0000 O.2     1  UNL1       -0.2456
      7 O           9.4651   -5.0390    0.0000 O.3     1  UNL1       -0.3841
      8 O           7.7331   -6.0390    0.0000 O.3     1  UNL1       -0.3864
      9 O           6.0010   -5.0390    0.0000 O.3     1  UNL1       -0.3402
     10 O           5.1350   -3.5390    0.0000 O.3     1  UNL1       -0.3405
     11 O           4.2690   -6.0390    0.0000 O.3     1  UNL1       -0.3841
     12 O           2.5369   -5.0390    0.0000 O.3     1  UNL1       -0.3864
     13 O           2.5369   -3.0390    0.0000 O.3     1  UNL1       -0.3865
     14 O           5.1350   -1.5390    0.0000 O.3     1  UNL1       -0.3924
     15 C          10.3623    2.6612    0.0000 C.3     1  UNL1        0.0752
     16 C          10.3662    1.6612    0.0000 C.3     1  UNL1       -0.0059
     17 C           9.5021    1.1579    0.0000 C.3     1  UNL1       -0.0039
     18 C           9.4944    3.1579    0.0000 C.3     1  UNL1        0.0059
     19 C           9.4901    0.1163    0.0000 C.3     1  UNL1       -0.0236
     20 C          10.3901   -0.4079    0.0000 C.3     1  UNL1       -0.0329
     21 C           8.6342    1.6546    0.0000 C.3     1  UNL1        0.0595
     22 C           8.6303    2.6546    0.0000 C.3     1  UNL1       -0.0180
     23 C           9.6999    4.1305    0.0000 C.3     1  UNL1       -0.0080
     24 C          11.2781    1.1579    0.0000 C.3     1  UNL1       -0.0470
     25 C          11.0968    3.3312    0.0000 C.3     1  UNL1       -0.0226
     26 C          11.2902    0.1163    0.0000 C.3     1  UNL1       -0.0493
     27 C          10.6882    4.2374    0.0000 C.3     1  UNL1       -0.0432
     28 C           8.5402   -0.4079    0.0000 C.3     1  UNL1       -0.0447
     29 C          10.4027   -1.4929    0.0000 C.3     1  UNL1       -0.0232
     30 C           8.6264    3.6546    0.0000 C.3     1  UNL1       -0.0563
     31 C           8.6260    0.6197    0.0000 C.3     1  UNL1       -0.0590
     32 C           8.5276   -1.4929    0.0000 C.3     1  UNL1       -0.0260
     33 C           9.4651   -2.0390    0.0000 C.3     1  UNL1        0.0621
     34 C           9.0292    4.8722    0.0000 C.2     1  UNL1       -0.0222
     35 C           9.2350    5.8508    0.0000 C.3     1  UNL1        0.1147
     36 C           8.0348    4.7656    0.0000 C.2     1  UNL1        0.0252
     37 C           8.5991   -3.5390    0.0000 C.3     1  UNL1        0.1881
     38 C           7.6262    5.6783    0.0000 C.2     1  UNL1        0.3323
     39 C           8.5991   -4.5390    0.0000 C.3     1  UNL1        0.1341
     40 C           7.7331   -5.0390    0.0000 C.3     1  UNL1        0.1143
     41 C           6.8671   -3.5390    0.0000 C.3     1  UNL1        0.0877
     42 C           6.8671   -4.5390    0.0000 C.3     1  UNL1        0.1160
     43 C           6.0010   -3.0390    0.0000 C.3     1  UNL1       -0.0361
     44 C           5.1350   -4.5390    0.0000 C.3     1  UNL1        0.1884
     45 C           4.2690   -5.0390    0.0000 C.3     1  UNL1        0.1341
     46 C           3.4030   -4.5390    0.0000 C.3     1  UNL1        0.1141
     47 C           4.2690   -3.0390    0.0000 C.3     1  UNL1        0.1130
     48 C           3.4030   -3.5390    0.0000 C.3     1  UNL1        0.1119
     49 C           4.2690   -2.0390    0.0000 C.3     1  UNL1        0.0730
     50 H          11.0974    2.0947    0.0000 H       1  UNL1        0.0332
     51 H          10.2366    0.7301    0.0000 H       1  UNL1        0.0335
     52 H          11.1295   -0.8273    0.0000 H       1  UNL1        0.0307
     53 H           8.6366    1.0346    0.0000 H       1  UNL1        0.0596
     54 H           8.4160    3.2364    0.0000 H       1  UNL1        0.0296
     55 H           8.0201    2.5446    0.0000 H       1  UNL1        0.0296
     56 H           9.9206    4.7099    0.0000 H       1  UNL1        0.0353
     57 H          11.8902    1.0589    0.0000 H       1  UNL1        0.0269
     58 H          11.4804    1.7440    0.0000 H       1  UNL1        0.0269
     59 H          11.4642    2.8317    0.0000 H       1  UNL1        0.0293
     60 H          11.6321    3.6440    0.0000 H       1  UNL1        0.0293
     61 H          11.5060   -0.4649    0.0000 H       1  UNL1        0.0268
     62 H          11.8998    0.2295    0.0000 H       1  UNL1        0.0268
     63 H          11.2770    4.4314    0.0000 H       1  UNL1        0.0272
     64 H          10.5571    4.8434    0.0000 H       1  UNL1        0.0272
     65 H           8.3379    0.1781    0.0000 H       1  UNL1        0.0271
     66 H           7.9281   -0.5070    0.0000 H       1  UNL1        0.0271
     67 H          10.6185   -2.0741    0.0000 H       1  UNL1        0.0293
     68 H          11.0123   -1.3797    0.0000 H       1  UNL1        0.0293
     69 H           8.9344    4.1927    0.0000 H       1  UNL1        0.0236
     70 H           8.0883    3.9625    0.0000 H       1  UNL1        0.0236
     71 H           8.3185    3.1164    0.0000 H       1  UNL1        0.0236
     72 H           8.9380    1.1554    0.0000 H       1  UNL1        0.0235
     73 H           8.0902    0.9318    0.0000 H       1  UNL1        0.0235
     74 H           8.3139    0.0839    0.0000 H       1  UNL1        0.0235
     75 H           7.9180   -1.3797    0.0000 H       1  UNL1        0.0290
     76 H           8.3118   -2.0741    0.0000 H       1  UNL1        0.0290
     77 H          10.0027   -2.3479    0.0000 H       1  UNL1        0.0597
     78 H          11.7660    2.4766    0.0000 H       1  UNL1        0.2102
     79 H           7.2319    1.4592    0.0000 H       1  UNL1        0.2098
     80 H           9.8250    5.6605    0.0000 H       1  UNL1        0.0746
     81 H           9.4860    6.4178    0.0000 H       1  UNL1        0.0746
     82 H           7.7260    4.2280    0.0000 H       1  UNL1        0.0689
     83 H           8.5991   -2.9190    0.0000 H       1  UNL1        0.0937
     84 H           8.5991   -5.1590    0.0000 H       1  UNL1        0.0671
     85 H           7.1962   -5.3490    0.0000 H       1  UNL1        0.0648
     86 H           6.8671   -2.9190    0.0000 H       1  UNL1        0.0621
     87 H           6.3301   -4.2290    0.0000 H       1  UNL1        0.0650
     88 H          10.0021   -4.7290    0.0000 H       1  UNL1        0.2101
     89 H           6.3110   -2.5020    0.0000 H       1  UNL1        0.0255
     90 H           5.4641   -2.7290    0.0000 H       1  UNL1        0.0255
     91 H           5.6910   -3.5759    0.0000 H       1  UNL1        0.0255
     92 H           8.2700   -6.3490    0.0000 H       1  UNL1        0.2100
     93 H           5.1350   -5.1590    0.0000 H       1  UNL1        0.0938
     94 H           3.7320   -5.3490    0.0000 H       1  UNL1        0.0671
     95 H           2.8660   -4.2290    0.0000 H       1  UNL1        0.0648
     96 H           4.8059   -2.7290    0.0000 H       1  UNL1        0.0647
     97 H           3.4030   -2.9190    0.0000 H       1  UNL1        0.0647
     98 H           3.7320   -6.3490    0.0000 H       1  UNL1        0.2101
     99 H           4.0569   -1.4564    0.0000 H       1  UNL1        0.0584
    100 H           3.6584   -2.1466    0.0000 H       1  UNL1        0.0584
    101 H           2.0000   -4.7290    0.0000 H       1  UNL1        0.2100
    102 H           2.5369   -2.4190    0.0000 H       1  UNL1        0.2100
    103 H           5.1350   -0.9190    0.0000 H       1  UNL1        0.2095
@<TRIPOS>BOND
     1    15     1    1
     2     1    78    1
     3    21     2    1
     4     2    79    1
     5    33     3    1
     6    37     3    1
     7     4    35    1
     8     4    38    1
     9     5    37    1
    10     5    41    1
    11     6    38    2
    12    39     7    1
    13     7    88    1
    14    40     8    1
    15     8    92    1
    16    42     9    1
    17    44     9    1
    18    10    44    1
    19    10    47    1
    20    45    11    1
    21    11    98    1
    22    46    12    1
    23    12   101    1
    24    48    13    1
    25    13   102    1
    26    14    49    1
    27    14   103    1
    28    15    16    1
    29    15    18    1
    30    15    25    1
    31    16    17    1
    32    16    24    1
    33    16    50    1
    34    17    19    1
    35    17    21    1
    36    17    51    1
    37    18    22    1
    38    18    23    1
    39    18    30    1
    40    19    20    1
    41    19    28    1
    42    19    31    1
    43    20    26    1
    44    20    29    1
    45    20    52    1
    46    21    22    1
    47    21    53    1
    48    22    54    1
    49    22    55    1
    50    23    27    1
    51    23    34    1
    52    23    56    1
    53    24    26    1
    54    24    57    1
    55    24    58    1
    56    25    27    1
    57    25    59    1
    58    25    60    1
    59    26    61    1
    60    26    62    1
    61    27    63    1
    62    27    64    1
    63    28    32    1
    64    28    65    1
    65    28    66    1
    66    29    33    1
    67    29    67    1
    68    29    68    1
    69    30    69    1
    70    30    70    1
    71    30    71    1
    72    31    72    1
    73    31    73    1
    74    31    74    1
    75    32    33    1
    76    32    75    1
    77    32    76    1
    78    33    77    1
    79    34    35    1
    80    34    36    2
    81    35    80    1
    82    35    81    1
    83    36    38    1
    84    36    82    1
    85    37    39    1
    86    37    83    1
    87    39    40    1
    88    39    84    1
    89    40    42    1
    90    40    85    1
    91    41    42    1
    92    41    43    1
    93    41    86    1
    94    42    87    1
    95    43    89    1
    96    43    90    1
    97    43    91    1
    98    44    45    1
    99    44    93    1
   100    45    46    1
   101    45    94    1
   102    46    48    1
   103    46    95    1
   104    47    48    1
   105    47    49    1
   106    47    96    1
   107    48    97    1
   108    49    99    1
   109    49   100    1
