@<TRIPOS>MOLECULE
IMPHY012882
 35 37 0 0 0
SMALL
GASTEIGER

@<TRIPOS>ATOM
      1 O           6.0682   -0.6154    0.0000 O.2     1  UNL1       -0.4506
      2 O           7.8003    1.3846    0.0000 O.3     1  UNL1       -0.5007
      3 O           4.3198    2.4192    0.0000 O.3     1  UNL1       -0.5058
      4 O           6.0682    2.3846    0.0000 O.2     1  UNL1       -0.2830
      5 O           6.9343   -2.1154    0.0000 O.3     1  UNL1       -0.5059
      6 O          10.3984   -2.1154    0.0000 O.3     1  UNL1       -0.4950
      7 O           2.5381   -0.6395    0.0000 O.3     1  UNL1       -0.5065
      8 C           5.2022    0.8846    0.0000 C.ar    1  UNL1        0.1092
      9 C           6.9343   -0.1154    0.0000 C.ar    1  UNL1        0.1841
     10 C           5.2022   -0.1154    0.0000 C.ar    1  UNL1        0.1465
     11 C           7.8003   -0.6154    0.0000 C.ar    1  UNL1        0.0626
     12 C           6.9343    0.8846    0.0000 C.ar    1  UNL1        0.2083
     13 C           6.0682    1.3846    0.0000 C.ar    1  UNL1        0.2379
     14 C           4.3083    1.4193    0.0000 C.ar    1  UNL1        0.1348
     15 C           4.3083   -0.6501    0.0000 C.ar    1  UNL1        0.0231
     16 C           7.8003   -1.6154    0.0000 C.ar    1  UNL1        0.1311
     17 C           8.6663   -0.1154    0.0000 C.ar    1  UNL1       -0.0440
     18 C           3.4022   -0.1362    0.0000 C.ar    1  UNL1        0.1239
     19 C           3.4022    0.9054    0.0000 C.ar    1  UNL1        0.0223
     20 C           8.6663   -2.1154    0.0000 C.ar    1  UNL1        0.0222
     21 C           9.5323   -0.6154    0.0000 C.ar    1  UNL1       -0.0190
     22 C           9.5323   -1.6154    0.0000 C.ar    1  UNL1        0.1236
     23 C          11.2644   -1.6154    0.0000 C.3     1  UNL1        0.0788
     24 H           4.3154   -1.2700    0.0000 H       1  UNL1        0.0691
     25 H           8.6663    0.5046    0.0000 H       1  UNL1        0.0627
     26 H           2.8665    1.2175    0.0000 H       1  UNL1        0.0691
     27 H           8.6663   -2.7354    0.0000 H       1  UNL1        0.0691
     28 H          10.0693   -0.3054    0.0000 H       1  UNL1        0.0654
     29 H           7.8003    2.0046    0.0000 H       1  UNL1        0.2924
     30 H           3.7865    2.7354    0.0000 H       1  UNL1        0.2922
     31 H           6.9343   -2.7354    0.0000 H       1  UNL1        0.2922
     32 H           2.0000   -0.3316    0.0000 H       1  UNL1        0.2921
     33 H          11.5744   -2.1523    0.0000 H       1  UNL1        0.0660
     34 H          11.8013   -1.3054    0.0000 H       1  UNL1        0.0660
     35 H          10.9544   -1.0785    0.0000 H       1  UNL1        0.0660
@<TRIPOS>BOND
     1     1     9   ar
     2     1    10   ar
     3     2    12    1
     4     2    29    1
     5     3    14    1
     6     3    30    1
     7     4    13    2
     8     5    16    1
     9     5    31    1
    10     6    22    1
    11     6    23    1
    12     7    18    1
    13     7    32    1
    14     8    10   ar
    15     8    13   ar
    16     8    14   ar
    17     9    11    1
    18     9    12   ar
    19    10    15   ar
    20    11    16   ar
    21    11    17   ar
    22    12    13   ar
    23    14    19   ar
    24    15    18   ar
    25    15    24    1
    26    16    20   ar
    27    17    21   ar
    28    17    25    1
    29    18    19   ar
    30    19    26    1
    31    20    22   ar
    32    20    27    1
    33    21    22   ar
    34    21    28    1
    35    23    33    1
    36    23    34    1
    37    23    35    1
