@<TRIPOS>MOLECULE
IMPHY013180
 43 45 0 0 0
SMALL
GASTEIGER

@<TRIPOS>ATOM
      1 O           9.8222   -1.0347    0.0000 O.3     1  UNL1       -0.4777
      2 O           8.0622    2.0000    0.0000 O.3     1  UNL1       -0.5052
      3 O           8.0622   -2.0000    0.0000 O.3     1  UNL1       -0.5009
      4 O           6.3301   -1.0000    0.0000 O.3     1  UNL1       -0.5027
      5 O           6.3301    2.0000    0.0000 O.2     1  UNL1       -0.2870
      6 C          10.7282   -0.5208    0.0000 C.3     1  UNL1        0.1237
      7 C           8.9282   -0.5000    0.0000 C.ar    1  UNL1        0.1772
      8 C           8.9282    0.5000    0.0000 C.ar    1  UNL1        0.0625
      9 C          10.7282    0.5208    0.0000 C.2     1  UNL1       -0.0408
     10 C          11.7282   -0.5247    0.0000 C.3     1  UNL1       -0.0215
     11 C          11.2249   -1.3888    0.0000 C.3     1  UNL1       -0.0215
     12 C           9.8222    1.0347    0.0000 C.2     1  UNL1       -0.0477
     13 C           8.0622    1.0000    0.0000 C.ar    1  UNL1        0.1420
     14 C           8.0622   -1.0000    0.0000 C.ar    1  UNL1        0.2024
     15 C           7.1962    0.5000    0.0000 C.ar    1  UNL1        0.1087
     16 C           7.1962   -0.5000    0.0000 C.ar    1  UNL1        0.1766
     17 C           6.3301    1.0000    0.0000 C.2     1  UNL1        0.1932
     18 C           5.4641    0.5000    0.0000 C.2     1  UNL1       -0.0135
     19 C           4.5981    1.0000    0.0000 C.2     1  UNL1       -0.0510
     20 C           3.7320    0.5000    0.0000 C.ar    1  UNL1       -0.0249
     21 C           2.8660    1.0000    0.0000 C.ar    1  UNL1       -0.0546
     22 C           3.7320   -0.5000    0.0000 C.ar    1  UNL1       -0.0546
     23 C           2.0000    0.5000    0.0000 C.ar    1  UNL1       -0.0612
     24 C           2.8660   -1.0000    0.0000 C.ar    1  UNL1       -0.0612
     25 C           2.0000   -0.5000    0.0000 C.ar    1  UNL1       -0.0617
     26 H          11.2639    0.8329    0.0000 H       1  UNL1        0.0611
     27 H          11.7258   -1.1447    0.0000 H       1  UNL1        0.0271
     28 H          12.3482   -0.5271    0.0000 H       1  UNL1        0.0271
     29 H          11.7306    0.0953    0.0000 H       1  UNL1        0.0271
     30 H          10.6867   -1.6967    0.0000 H       1  UNL1        0.0271
     31 H          11.5328   -1.9269    0.0000 H       1  UNL1        0.0271
     32 H          11.7630   -1.0808    0.0000 H       1  UNL1        0.0271
     33 H           9.8150    1.6546    0.0000 H       1  UNL1        0.0624
     34 H           8.5991    2.3100    0.0000 H       1  UNL1        0.2922
     35 H           8.5991   -2.3100    0.0000 H       1  UNL1        0.2924
     36 H           5.4641   -0.1200    0.0000 H       1  UNL1        0.0656
     37 H           6.3301   -1.6200    0.0000 H       1  UNL1        0.2923
     38 H           4.5981    1.6200    0.0000 H       1  UNL1        0.0625
     39 H           2.8660    1.6200    0.0000 H       1  UNL1        0.0623
     40 H           4.2690   -0.8100    0.0000 H       1  UNL1        0.0623
     41 H           1.4631    0.8100    0.0000 H       1  UNL1        0.0618
     42 H           2.8660   -1.6200    0.0000 H       1  UNL1        0.0618
     43 H           1.4631   -0.8100    0.0000 H       1  UNL1        0.0618
@<TRIPOS>BOND
     1     1     6    1
     2     1     7    1
     3     2    13    1
     4     2    34    1
     5     3    14    1
     6     3    35    1
     7     4    16    1
     8     4    37    1
     9     5    17    2
    10     6     9    1
    11     6    10    1
    12     6    11    1
    13     7     8   ar
    14     7    14   ar
    15     8    12    1
    16     8    13   ar
    17     9    12    2
    18     9    26    1
    19    10    27    1
    20    10    28    1
    21    10    29    1
    22    11    30    1
    23    11    31    1
    24    11    32    1
    25    12    33    1
    26    13    15   ar
    27    14    16   ar
    28    15    16   ar
    29    15    17    1
    30    17    18    1
    31    18    19    2
    32    18    36    1
    33    19    20    1
    34    19    38    1
    35    20    21   ar
    36    20    22   ar
    37    21    23   ar
    38    21    39    1
    39    22    24   ar
    40    22    40    1
    41    23    25   ar
    42    23    41    1
    43    24    25   ar
    44    24    42    1
    45    25    43    1
