@<TRIPOS>MOLECULE
IMPHY009424
 57 61 0 0 0
SMALL
GASTEIGER

@<TRIPOS>ATOM
      1 O           7.6345    2.0104    0.0000 O.co2   1  UNL1       -0.7746
      2 O           9.3042   -2.9187    0.0000 O.3     1  UNL1       -0.3910
      3 O           7.5596   -3.4226    0.0000 O.3     1  UNL1       -0.4677
      4 O           6.2860   -2.2489    0.0000 O.2     1  UNL1       -0.2504
      5 O           3.6526    3.4077    0.0000 O.3     1  UNL1       -0.4944
      6 N           6.9654    1.2673    0.0000 N.3     1  UNL1        0.2240
      7 N           4.5124    0.1498    0.0000 N.ar    1  UNL1       -0.3532
      8 C           7.6200   -0.6958    0.0000 C.3     1  UNL1       -0.0126
      9 C           8.3170    0.0783    0.0000 C.3     1  UNL1        0.0031
     10 C           6.2962    0.5241    0.0000 C.3     1  UNL1        0.0200
     11 C           6.6028   -0.4714    0.0000 C.3     1  UNL1        0.0001
     12 C           7.9875    1.0664    0.0000 C.3     1  UNL1       -0.0289
     13 C           7.9393   -1.7327    0.0000 C.3     1  UNL1        0.0857
     14 C           9.3816   -0.1309    0.0000 C.3     1  UNL1       -0.0428
     15 C           6.6564    2.2183    0.0000 C.3     1  UNL1       -0.0279
     16 C           8.9988   -1.9665    0.0000 C.3     1  UNL1        0.0684
     17 C           5.3181    0.7321    0.0000 C.ar    1  UNL1        0.0689
     18 C           9.7248   -1.1602    0.0000 C.3     1  UNL1       -0.0256
     19 C           5.6782    2.4262    0.0000 C.3     1  UNL1        0.0152
     20 C           5.0091    1.6831    0.0000 C.ar    1  UNL1       -0.0051
     21 C           7.2616   -2.4681    0.0000 C.2     1  UNL1        0.3127
     22 C           4.0150    1.6805    0.0000 C.ar    1  UNL1        0.0451
     23 C           3.7086    0.7348    0.0000 C.ar    1  UNL1        0.0506
     24 C           3.3334    2.4600    0.0000 C.ar    1  UNL1        0.1295
     25 C           2.6994    0.5031    0.0000 C.ar    1  UNL1       -0.0376
     26 C           2.3191    2.2517    0.0000 C.ar    1  UNL1       -0.0192
     27 C           2.0000    1.2666    0.0000 C.ar    1  UNL1       -0.0563
     28 C           6.8820   -4.1580    0.0000 C.3     1  UNL1        0.0817
     29 C           2.9914    4.1580    0.0000 C.3     1  UNL1        0.0788
     30 H           7.0440   -1.3208    0.0000 H       1  UNL1        0.0316
     31 H           8.8784    0.7165    0.0000 H       1  UNL1        0.0355
     32 H           5.7226   -0.1031    0.0000 H       1  UNL1        0.0918
     33 H           5.9878   -0.5497    0.0000 H       1  UNL1        0.0327
     34 H           6.5748   -1.0907    0.0000 H       1  UNL1        0.0327
     35 H           8.6005    1.1590    0.0000 H       1  UNL1        0.0816
     36 H           8.0011    1.6863    0.0000 H       1  UNL1        0.0816
     37 H           7.3346   -1.5956    0.0000 H       1  UNL1        0.0442
     38 H           9.9946   -0.0383    0.0000 H       1  UNL1        0.0271
     39 H           9.3953    0.4890    0.0000 H       1  UNL1        0.0271
     40 H           7.2703    2.3046    0.0000 H       1  UNL1        0.0817
     41 H           6.6780    2.8380    0.0000 H       1  UNL1        0.0817
     42 H           9.6050   -2.0965    0.0000 H       1  UNL1        0.0601
     43 H          10.1078   -1.6477    0.0000 H       1  UNL1        0.0290
     44 H          10.2708   -0.8663    0.0000 H       1  UNL1        0.0290
     45 H           5.9105    3.0011    0.0000 H       1  UNL1        0.0366
     46 H           5.1524    2.7548    0.0000 H       1  UNL1        0.0366
     47 H           4.5113   -0.4702    0.0000 H       1  UNL1        0.1658
     48 H           9.9101   -3.0500    0.0000 H       1  UNL1        0.2098
     49 H           2.5152   -0.0889    0.0000 H       1  UNL1        0.0638
     50 H           1.9056    2.7137    0.0000 H       1  UNL1        0.0654
     51 H           1.3942    1.1349    0.0000 H       1  UNL1        0.0619
     52 H           6.4260   -3.7378    0.0000 H       1  UNL1        0.0661
     53 H           6.4618   -4.6139    0.0000 H       1  UNL1        0.0661
     54 H           7.3379   -4.5782    0.0000 H       1  UNL1        0.0661
     55 H           3.4566    4.5679    0.0000 H       1  UNL1        0.0660
     56 H           2.5815    4.6232    0.0000 H       1  UNL1        0.0660
     57 H           2.5263    3.7481    0.0000 H       1  UNL1        0.0660
@<TRIPOS>UNITY_ATOM_ATTR
1 1
charge -1
6 1
charge 1
@<TRIPOS>BOND
     1     1     6    1
     2    16     2    1
     3     2    48    1
     4     3    21    1
     5     3    28    1
     6     4    21    2
     7     5    24    1
     8     5    29    1
     9     6    10    1
    10     6    12    1
    11     6    15    1
    12     7    17   ar
    13     7    23   ar
    14     7    47    1
    15     8     9    1
    16     8    11    1
    17     8    13    1
    18     8    30    1
    19     9    12    1
    20     9    14    1
    21     9    31    1
    22    10    11    1
    23    10    17    1
    24    10    32    1
    25    11    33    1
    26    11    34    1
    27    12    35    1
    28    12    36    1
    29    13    16    1
    30    13    21    1
    31    13    37    1
    32    14    18    1
    33    14    38    1
    34    14    39    1
    35    15    19    1
    36    15    40    1
    37    15    41    1
    38    16    18    1
    39    16    42    1
    40    17    20   ar
    41    18    43    1
    42    18    44    1
    43    19    20    1
    44    19    45    1
    45    19    46    1
    46    20    22   ar
    47    22    23   ar
    48    22    24   ar
    49    23    25   ar
    50    24    26   ar
    51    25    27   ar
    52    25    49    1
    53    26    27   ar
    54    26    50    1
    55    27    51    1
    56    28    52    1
    57    28    53    1
    58    28    54    1
    59    29    55    1
    60    29    56    1
    61    29    57    1
