@<TRIPOS>MOLECULE
IMPHY001139
 78 81 0 0 0
SMALL
GASTEIGER

@<TRIPOS>ATOM
      1 O           7.4149   -1.2739    0.0000 O.3     1  UNL1       -0.3873
      2 O           5.6489   -2.3117    0.0000 O.3     1  UNL1       -0.4586
      3 O           2.0000   -1.2948    0.0000 O.2     1  UNL1       -0.2921
      4 O           7.3810   -2.3050    0.0000 O.2     1  UNL1       -0.2512
      5 O          12.9212    2.1429    0.0000 O.3     1  UNL1       -0.4806
      6 O          11.6320    0.9861    0.0000 O.2     1  UNL1       -0.2510
      7 C           6.5271    0.2576    0.0000 C.3     1  UNL1        0.0224
      8 C           5.6610    0.7576    0.0000 C.3     1  UNL1       -0.0202
      9 C           4.7510    0.2507    0.0000 C.3     1  UNL1       -0.0028
     10 C           4.7430   -0.7909    0.0000 C.3     1  UNL1        0.0199
     11 C           7.3931    1.7576    0.0000 C.3     1  UNL1       -0.0037
     12 C           7.3931    0.7576    0.0000 C.2     1  UNL1       -0.0582
     13 C           6.5431   -0.7840    0.0000 C.3     1  UNL1        0.1016
     14 C           5.6610    1.7576    0.0000 C.3     1  UNL1       -0.0477
     15 C           5.6451   -1.3117    0.0000 C.3     1  UNL1        0.1340
     16 C           6.5271    2.2576    0.0000 C.3     1  UNL1       -0.0430
     17 C           3.8076   -1.3406    0.0000 C.3     1  UNL1        0.0344
     18 C           8.3393    2.0623    0.0000 C.3     1  UNL1       -0.0076
     19 C           7.3931   -0.2424    0.0000 C.3     1  UNL1       -0.0530
     20 C           4.7587    1.2507    0.0000 C.3     1  UNL1       -0.0554
     21 C           3.8242    0.8148    0.0000 C.2     1  UNL1       -0.0741
     22 C           8.3393    0.4528    0.0000 C.2     1  UNL1       -0.0830
     23 C           8.9229    1.2576    0.0000 C.3     1  UNL1       -0.0272
     24 C           7.3931    2.7576    0.0000 C.3     1  UNL1       -0.0553
     25 C           2.8680   -0.7981    0.0000 C.2     1  UNL1        0.1618
     26 C           2.8763    0.2868    0.0000 C.2     1  UNL1       -0.0220
     27 C           3.3109   -2.2086    0.0000 C.3     1  UNL1       -0.0524
     28 C           4.3109   -2.2047    0.0000 C.3     1  UNL1       -0.0524
     29 C           8.6500    3.0128    0.0000 C.2     1  UNL1       -0.0723
     30 C           7.9821    3.7571    0.0000 C.3     1  UNL1       -0.0435
     31 C           9.6285    3.2190    0.0000 C.2     1  UNL1       -0.0842
     32 C           6.5169   -2.8084    0.0000 C.2     1  UNL1        0.3043
     33 C          10.2963    2.4747    0.0000 C.3     1  UNL1       -0.0244
     34 C           6.5207   -3.8084    0.0000 C.3     1  UNL1        0.0332
     35 C          11.2748    2.6809    0.0000 C.3     1  UNL1        0.0482
     36 C          11.9427    1.9366    0.0000 C.2     1  UNL1        0.3050
     37 H           6.3972    1.1826    0.0000 H       1  UNL1        0.0318
     38 H           4.7463   -1.6409    0.0000 H       1  UNL1        0.0355
     39 H           6.5491   -1.4039    0.0000 H       1  UNL1        0.0639
     40 H           5.4490    2.3402    0.0000 H       1  UNL1        0.0269
     41 H           5.0504    1.6499    0.0000 H       1  UNL1        0.0269
     42 H           5.1087   -1.6227    0.0000 H       1  UNL1        0.0764
     43 H           6.9256    2.7325    0.0000 H       1  UNL1        0.0274
     44 H           6.1285    2.7325    0.0000 H       1  UNL1        0.0274
     45 H           7.9018    2.5016    0.0000 H       1  UNL1        0.0357
     46 H           7.0831   -0.7794    0.0000 H       1  UNL1        0.0239
     47 H           7.9300   -0.5524    0.0000 H       1  UNL1        0.0239
     48 H           7.7031    0.2945    0.0000 H       1  UNL1        0.0239
     49 H           5.3787    1.2459    0.0000 H       1  UNL1        0.0238
     50 H           4.7635    1.8707    0.0000 H       1  UNL1        0.0238
     51 H           4.1388    1.2555    0.0000 H       1  UNL1        0.0238
     52 H           3.8361    1.4347    0.0000 H       1  UNL1        0.0579
     53 H           8.5319   -0.1365    0.0000 H       1  UNL1        0.0572
     54 H           9.3838    0.8428    0.0000 H       1  UNL1        0.0313
     55 H           9.3838    1.6723    0.0000 H       1  UNL1        0.0313
     56 H           8.0131    2.7576    0.0000 H       1  UNL1        0.0238
     57 H           7.3931    3.3776    0.0000 H       1  UNL1        0.0238
     58 H           6.7731    2.7576    0.0000 H       1  UNL1        0.0238
     59 H           2.3430    0.6030    0.0000 H       1  UNL1        0.0649
     60 H           2.7728   -1.9006    0.0000 H       1  UNL1        0.0239
     61 H           3.0030   -2.7467    0.0000 H       1  UNL1        0.0239
     62 H           3.8490   -2.5165    0.0000 H       1  UNL1        0.0239
     63 H           3.7752   -2.5168    0.0000 H       1  UNL1        0.0239
     64 H           4.6230   -2.7404    0.0000 H       1  UNL1        0.0239
     65 H           4.8466   -1.8926    0.0000 H       1  UNL1        0.0239
     66 H           7.9482   -0.9577    0.0000 H       1  UNL1        0.2100
     67 H           8.4436    4.1712    0.0000 H       1  UNL1        0.0274
     68 H           7.5681    4.2186    0.0000 H       1  UNL1        0.0274
     69 H           7.5207    3.3430    0.0000 H       1  UNL1        0.0274
     70 H           9.8211    3.8084    0.0000 H       1  UNL1        0.0572
     71 H           9.7700    2.1471    0.0000 H       1  UNL1        0.0313
     72 H          10.5276    1.8995    0.0000 H       1  UNL1        0.0313
     73 H           5.9007   -3.8107    0.0000 H       1  UNL1        0.0342
     74 H           6.5231   -4.4283    0.0000 H       1  UNL1        0.0342
     75 H           7.1407   -3.8060    0.0000 H       1  UNL1        0.0342
     76 H          11.8012    3.0086    0.0000 H       1  UNL1        0.0380
     77 H          11.0436    3.2562    0.0000 H       1  UNL1        0.0380
     78 H          13.3352    1.6814    0.0000 H       1  UNL1        0.2951
@<TRIPOS>BOND
     1    13     1    1
     2     1    66    1
     3    15     2    1
     4     2    32    1
     5     3    25    2
     6     4    32    2
     7     5    36    1
     8     5    78    1
     9     6    36    2
    10     7     8    1
    11     7    12    1
    12     7    13    1
    13     7    19    1
    14     8     9    1
    15     8    14    1
    16     8    37    1
    17     9    10    1
    18     9    20    1
    19     9    21    1
    20    10    15    1
    21    10    17    1
    22    10    38    1
    23    11    12    1
    24    11    16    1
    25    11    18    1
    26    11    24    1
    27    12    22    2
    28    13    15    1
    29    13    39    1
    30    14    16    1
    31    14    40    1
    32    14    41    1
    33    15    42    1
    34    16    43    1
    35    16    44    1
    36    17    25    1
    37    17    27    1
    38    17    28    1
    39    18    23    1
    40    18    29    1
    41    18    45    1
    42    19    46    1
    43    19    47    1
    44    19    48    1
    45    20    49    1
    46    20    50    1
    47    20    51    1
    48    21    26    2
    49    21    52    1
    50    22    23    1
    51    22    53    1
    52    23    54    1
    53    23    55    1
    54    24    56    1
    55    24    57    1
    56    24    58    1
    57    25    26    1
    58    26    59    1
    59    27    60    1
    60    27    61    1
    61    27    62    1
    62    28    63    1
    63    28    64    1
    64    28    65    1
    65    29    30    1
    66    29    31    2
    67    30    67    1
    68    30    68    1
    69    30    69    1
    70    31    33    1
    71    31    70    1
    72    32    34    1
    73    33    35    1
    74    33    71    1
    75    33    72    1
    76    34    73    1
    77    34    74    1
    78    34    75    1
    79    35    36    1
    80    35    76    1
    81    35    77    1
