@<TRIPOS>MOLECULE
IMPHY006699
 81 85 0 0 0
SMALL
GASTEIGER

@<TRIPOS>ATOM
      1 O           9.4288   -1.5033    0.0000 O.3     1  UNL1       -0.4802
      2 O           2.5357   -2.6896    0.0000 O.3     1  UNL1       -0.3912
      3 O           8.4290   -2.5032    0.0000 O.2     1  UNL1       -0.2504
      4 C           7.0628   -1.1372    0.0000 C.3     1  UNL1       -0.0127
      5 C           7.9288   -0.6372    0.0000 C.3     1  UNL1        0.0763
      6 C           6.1968   -0.6372    0.0000 C.3     1  UNL1       -0.0289
      7 C           7.9288    0.3628    0.0000 C.3     1  UNL1       -0.0209
      8 C           5.2868   -1.1441    0.0000 C.3     1  UNL1       -0.0252
      9 C           8.8228    0.8974    0.0000 C.3     1  UNL1       -0.0253
     10 C           9.7288    0.3836    0.0000 C.3     1  UNL1       -0.0284
     11 C           5.2787   -2.1857    0.0000 C.3     1  UNL1       -0.0278
     12 C           7.0789   -2.1788    0.0000 C.3     1  UNL1       -0.0460
     13 C           6.1968    0.3628    0.0000 C.3     1  UNL1       -0.0489
     14 C           7.0628    0.8628    0.0000 C.3     1  UNL1       -0.0486
     15 C           8.8228   -1.1719    0.0000 C.3     1  UNL1       -0.0360
     16 C           6.1808   -2.7065    0.0000 C.3     1  UNL1       -0.0486
     17 C           9.7288   -0.6581    0.0000 C.3     1  UNL1       -0.0463
     18 C           9.0329    1.9113    0.0000 C.3     1  UNL1       -0.0168
     19 C           4.3433   -2.7354    0.0000 C.3     1  UNL1       -0.0056
     20 C           4.3599   -0.5800    0.0000 C.3     1  UNL1       -0.0447
     21 C          10.4911    1.0843    0.0000 C.3     1  UNL1       -0.0468
     22 C           7.8288   -1.7800    0.0000 C.3     1  UNL1       -0.0583
     23 C          10.0619    2.0266    0.0000 C.3     1  UNL1       -0.0457
     24 C           8.4289   -1.5032    0.0000 C.2     1  UNL1        0.3117
     25 C           5.2945   -0.1441    0.0000 C.3     1  UNL1       -0.0590
     26 C           3.4037   -2.1929    0.0000 C.3     1  UNL1        0.0606
     27 C           3.4120   -1.1080    0.0000 C.3     1  UNL1       -0.0258
     28 C          10.5987   -0.1097    0.0000 C.3     1  UNL1       -0.0593
     29 C           3.8467   -3.6034    0.0000 C.3     1  UNL1       -0.0572
     30 C           4.8466   -3.5995    0.0000 C.3     1  UNL1       -0.0572
     31 C           8.3593    2.6505    0.0000 C.2     1  UNL1       -0.0763
     32 C           8.6626    3.6034    0.0000 C.3     1  UNL1       -0.0438
     33 C           7.3824    2.4367    0.0000 C.2     1  UNL1       -0.0994
     34 H           6.9329   -0.2122    0.0000 H       1  UNL1        0.0312
     35 H           7.9223    1.2127    0.0000 H       1  UNL1        0.0315
     36 H           8.1300    1.3900    0.0000 H       1  UNL1        0.0315
     37 H           5.2820   -3.0357    0.0000 H       1  UNL1        0.0312
     38 H           7.2969   -2.7592    0.0000 H       1  UNL1        0.0271
     39 H           7.6880   -2.0632    0.0000 H       1  UNL1        0.0271
     40 H           5.9847    0.9454    0.0000 H       1  UNL1        0.0268
     41 H           5.5862    0.2551    0.0000 H       1  UNL1        0.0268
     42 H           7.4613    1.3377    0.0000 H       1  UNL1        0.0268
     43 H           6.6643    1.3377    0.0000 H       1  UNL1        0.0268
     44 H           8.4182   -1.6417    0.0000 H       1  UNL1        0.0276
     45 H           9.2164   -1.6509    0.0000 H       1  UNL1        0.0276
     46 H           5.7835   -3.1825    0.0000 H       1  UNL1        0.0268
     47 H           6.5818   -3.1794    0.0000 H       1  UNL1        0.0268
     48 H           9.9379   -1.2418    0.0000 H       1  UNL1        0.0271
     49 H          10.3397   -0.5520    0.0000 H       1  UNL1        0.0271
     50 H           9.2513    2.4916    0.0000 H       1  UNL1        0.0348
     51 H           4.7681   -0.1134    0.0000 H       1  UNL1        0.0271
     52 H           3.9700   -0.0980    0.0000 H       1  UNL1        0.0271
     53 H          10.8604    0.5863    0.0000 H       1  UNL1        0.0271
     54 H          11.0252    1.3992    0.0000 H       1  UNL1        0.0271
     55 H           7.4303   -2.2550    0.0000 H       1  UNL1        0.0235
     56 H           8.3038   -2.1786    0.0000 H       1  UNL1        0.0235
     57 H           8.2274   -1.3051    0.0000 H       1  UNL1        0.0235
     58 H          10.6500    2.2229    0.0000 H       1  UNL1        0.0271
     59 H           9.9285    2.6321    0.0000 H       1  UNL1        0.0271
     60 H           5.9145   -0.1489    0.0000 H       1  UNL1        0.0235
     61 H           5.2993    0.4759    0.0000 H       1  UNL1        0.0235
     62 H           4.6745   -0.1393    0.0000 H       1  UNL1        0.0235
     63 H           3.4025   -2.8129    0.0000 H       1  UNL1        0.0599
     64 H           3.2075   -0.5227    0.0000 H       1  UNL1        0.0290
     65 H           2.8004   -1.2093    0.0000 H       1  UNL1        0.0290
     66 H          10.2928   -0.6490    0.0000 H       1  UNL1        0.0235
     67 H          11.1380   -0.4156    0.0000 H       1  UNL1        0.0235
     68 H          10.9045    0.4296    0.0000 H       1  UNL1        0.0235
     69 H           3.3085   -3.2954    0.0000 H       1  UNL1        0.0236
     70 H           3.5387   -4.1415    0.0000 H       1  UNL1        0.0236
     71 H           4.3848   -3.9113    0.0000 H       1  UNL1        0.0236
     72 H           4.3109   -3.9116    0.0000 H       1  UNL1        0.0236
     73 H           5.1587   -4.1352    0.0000 H       1  UNL1        0.0236
     74 H           5.3824   -3.2874    0.0000 H       1  UNL1        0.0236
     75 H           9.7388   -2.0402    0.0000 H       1  UNL1        0.2951
     76 H           2.0000   -2.3775    0.0000 H       1  UNL1        0.2098
     77 H           9.2534    3.4153    0.0000 H       1  UNL1        0.0274
     78 H           8.8507    4.1941    0.0000 H       1  UNL1        0.0274
     79 H           8.0718    3.7914    0.0000 H       1  UNL1        0.0274
     80 H           6.9648    2.8950    0.0000 H       1  UNL1        0.0534
     81 H           7.1944    1.8459    0.0000 H       1  UNL1        0.0534
@<TRIPOS>BOND
     1     1    24    1
     2     1    75    1
     3    26     2    1
     4     2    76    1
     5     3    24    2
     6     4     5    1
     7     4     6    1
     8     4    12    1
     9     4    22    1
    10     5     7    1
    11     5    15    1
    12     5    24    1
    13     6     8    1
    14     6    13    1
    15     6    34    1
    16     7     9    1
    17     7    14    1
    18     7    35    1
    19     8    11    1
    20     8    20    1
    21     8    25    1
    22     9    10    1
    23     9    18    1
    24     9    36    1
    25    10    17    1
    26    10    21    1
    27    10    28    1
    28    11    16    1
    29    11    19    1
    30    11    37    1
    31    12    16    1
    32    12    38    1
    33    12    39    1
    34    13    14    1
    35    13    40    1
    36    13    41    1
    37    14    42    1
    38    14    43    1
    39    15    17    1
    40    15    44    1
    41    15    45    1
    42    16    46    1
    43    16    47    1
    44    17    48    1
    45    17    49    1
    46    18    23    1
    47    18    31    1
    48    18    50    1
    49    19    26    1
    50    19    29    1
    51    19    30    1
    52    20    27    1
    53    20    51    1
    54    20    52    1
    55    21    23    1
    56    21    53    1
    57    21    54    1
    58    22    55    1
    59    22    56    1
    60    22    57    1
    61    23    58    1
    62    23    59    1
    63    25    60    1
    64    25    61    1
    65    25    62    1
    66    26    27    1
    67    26    63    1
    68    27    64    1
    69    27    65    1
    70    28    66    1
    71    28    67    1
    72    28    68    1
    73    29    69    1
    74    29    70    1
    75    29    71    1
    76    30    72    1
    77    30    73    1
    78    30    74    1
    79    31    32    1
    80    31    33    2
    81    32    77    1
    82    32    78    1
    83    32    79    1
    84    33    80    1
    85    33    81    1
