@<TRIPOS>MOLECULE
IMPHY005214
 72 77 0 0 0
SMALL
GASTEIGER

@<TRIPOS>ATOM
      1 O           2.9644    2.5786    0.0000 O.3     1  UNL1       -0.3649
      2 O           3.8310    4.0786    0.0000 O.3     1  UNL1       -0.3846
      3 O           6.3294   -1.2184    0.0000 O.3     1  UNL1       -0.3876
      4 O           7.3332    3.0755    0.0000 O.2     1  UNL1       -0.2920
      5 O           4.7290   -3.5723    0.0000 O.3     1  UNL1       -0.4574
      6 O           4.0096   -5.1479    0.0000 O.2     1  UNL1       -0.2453
      7 C           4.6970    1.5786    0.0000 C.3     1  UNL1       -0.0049
      8 C           4.6809    0.5371    0.0000 C.3     1  UNL1       -0.0274
      9 C           5.5630    2.0786    0.0000 C.3     1  UNL1       -0.0203
     10 C           5.5790    0.0093    0.0000 C.3     1  UNL1        0.0003
     11 C           3.8310    2.0786    0.0000 C.3     1  UNL1        0.0914
     12 C           3.8310    3.0786    0.0000 C.3     1  UNL1        0.1153
     13 C           5.5630    3.0786    0.0000 C.3     1  UNL1        0.0647
     14 C           4.6970    3.5786    0.0000 C.3     1  UNL1        0.1104
     15 C           5.3532   -1.0012    0.0000 C.3     1  UNL1        0.0776
     16 C           6.4730    1.5718    0.0000 C.3     1  UNL1       -0.0483
     17 C           6.4810    0.5302    0.0000 C.3     1  UNL1       -0.0444
     18 C           3.9079   -0.1518    0.0000 C.3     1  UNL1       -0.0467
     19 C           4.3226   -1.1006    0.0000 C.3     1  UNL1       -0.0228
     20 C           6.4411   -0.4973    0.0000 C.3     1  UNL1       -0.0567
     21 C           5.4484   -1.9967    0.0000 C.3     1  UNL1        0.0230
     22 C           4.6809    4.6201    0.0000 C.3     1  UNL1       -0.0019
     23 C           6.4290    2.5786    0.0000 C.3     1  UNL1       -0.0495
     24 C           6.4730    3.5854    0.0000 C.2     1  UNL1        0.1647
     25 C           4.6339   -2.5768    0.0000 C.3     1  UNL1        0.1122
     26 C           5.5790    5.1479    0.0000 C.2     1  UNL1       -0.0779
     27 C           6.4810    4.6270    0.0000 C.2     1  UNL1       -0.0224
     28 C           6.3581   -2.4120    0.0000 C.3     1  UNL1       -0.0564
     29 C           3.7242   -2.1615    0.0000 C.3     1  UNL1        0.0064
     30 C           2.9097   -2.7416    0.0000 C.2     1  UNL1       -0.0595
     31 C           3.9145   -4.1524    0.0000 C.2     1  UNL1        0.3351
     32 C           3.0048   -3.7371    0.0000 C.2     1  UNL1        0.0326
     33 C           2.0000   -2.3262    0.0000 C.3     1  UNL1       -0.0429
     34 C           2.1903   -4.3172    0.0000 C.3     1  UNL1       -0.0330
     35 H           3.9576    1.1593    0.0000 H       1  UNL1        0.0332
     36 H           3.9080    0.8908    0.0000 H       1  UNL1        0.0311
     37 H           6.2958    2.5093    0.0000 H       1  UNL1        0.0315
     38 H           3.5210    1.5416    0.0000 H       1  UNL1        0.0626
     39 H           3.5210    3.6156    0.0000 H       1  UNL1        0.0651
     40 H           7.0847    1.4704    0.0000 H       1  UNL1        0.0269
     41 H           6.6776    2.1570    0.0000 H       1  UNL1        0.0269
     42 H           6.6946   -0.0519    0.0000 H       1  UNL1        0.0272
     43 H           7.0911    0.6410    0.0000 H       1  UNL1        0.0272
     44 H           3.5463    0.3518    0.0000 H       1  UNL1        0.0269
     45 H           3.3690   -0.4585    0.0000 H       1  UNL1        0.0269
     46 H           3.7315   -1.2878    0.0000 H       1  UNL1        0.0293
     47 H           4.4466   -1.7081    0.0000 H       1  UNL1        0.0293
     48 H           6.1270   -1.0318    0.0000 H       1  UNL1        0.0236
     49 H           6.9756   -0.8115    0.0000 H       1  UNL1        0.0236
     50 H           6.7552    0.0372    0.0000 H       1  UNL1        0.0236
     51 H           5.9534   -1.6370    0.0000 H       1  UNL1        0.0362
     52 H           4.4629    5.2005    0.0000 H       1  UNL1        0.0336
     53 H           4.0718    4.5046    0.0000 H       1  UNL1        0.0336
     54 H           6.1190    2.0417    0.0000 H       1  UNL1        0.0240
     55 H           6.9660    2.2686    0.0000 H       1  UNL1        0.0240
     56 H           6.7390    3.1155    0.0000 H       1  UNL1        0.0240
     57 H           3.8310    4.6986    0.0000 H       1  UNL1        0.2103
     58 H           6.5154   -1.8098    0.0000 H       1  UNL1        0.2102
     59 H           5.4071   -2.9298    0.0000 H       1  UNL1        0.0741
     60 H           5.5766    5.7679    0.0000 H       1  UNL1        0.0574
     61 H           7.0192    4.9350    0.0000 H       1  UNL1        0.0649
     62 H           6.1005   -2.9760    0.0000 H       1  UNL1        0.0234
     63 H           6.9220   -2.6695    0.0000 H       1  UNL1        0.0234
     64 H           6.6156   -1.8480    0.0000 H       1  UNL1        0.0234
     65 H           4.0757   -1.6508    0.0000 H       1  UNL1        0.0346
     66 H           3.2823   -1.7266    0.0000 H       1  UNL1        0.0346
     67 H           2.2575   -1.7623    0.0000 H       1  UNL1        0.0275
     68 H           1.4360   -2.0687    0.0000 H       1  UNL1        0.0275
     69 H           1.7425   -2.8902    0.0000 H       1  UNL1        0.0275
     70 H           1.8306   -3.8122    0.0000 H       1  UNL1        0.0280
     71 H           1.6853   -4.6768    0.0000 H       1  UNL1        0.0280
     72 H           2.5500   -4.8222    0.0000 H       1  UNL1        0.0280
@<TRIPOS>BOND
     1    11     1    1
     2    12     1    1
     3    14     2    1
     4     2    57    1
     5    15     3    1
     6     3    58    1
     7     4    24    2
     8     5    25    1
     9     5    31    1
    10     6    31    2
    11     7     8    1
    12     7     9    1
    13     7    11    1
    14     7    35    1
    15     8    10    1
    16     8    18    1
    17     8    36    1
    18     9    13    1
    19     9    16    1
    20     9    37    1
    21    10    15    1
    22    10    17    1
    23    10    20    1
    24    11    12    1
    25    11    38    1
    26    12    14    1
    27    12    39    1
    28    13    14    1
    29    13    23    1
    30    13    24    1
    31    14    22    1
    32    15    19    1
    33    15    21    1
    34    16    17    1
    35    16    40    1
    36    16    41    1
    37    17    42    1
    38    17    43    1
    39    18    19    1
    40    18    44    1
    41    18    45    1
    42    19    46    1
    43    19    47    1
    44    20    48    1
    45    20    49    1
    46    20    50    1
    47    21    25    1
    48    21    28    1
    49    21    51    1
    50    22    26    1
    51    22    52    1
    52    22    53    1
    53    23    54    1
    54    23    55    1
    55    23    56    1
    56    24    27    1
    57    25    29    1
    58    25    59    1
    59    26    27    2
    60    26    60    1
    61    27    61    1
    62    28    62    1
    63    28    63    1
    64    28    64    1
    65    29    30    1
    66    29    65    1
    67    29    66    1
    68    30    32    2
    69    30    33    1
    70    31    32    1
    71    32    34    1
    72    33    67    1
    73    33    68    1
    74    33    69    1
    75    34    70    1
    76    34    71    1
    77    34    72    1
