@<TRIPOS>MOLECULE
IMPHY004883
 66 68 0 0 0
SMALL
GASTEIGER

@<TRIPOS>ATOM
      1 O           6.8671   -2.0000    0.0000 O.3     1  UNL1       -0.3401
      2 O           6.8671    1.0000    0.0000 O.3     1  UNL1       -0.3407
      3 O           5.1350   -2.0000    0.0000 O.3     1  UNL1       -0.3405
      4 O           8.5991    2.0000    0.0000 O.3     1  UNL1       -0.3460
      5 O          10.3312    2.0000    0.0000 O.3     1  UNL1       -0.3405
      6 O           8.5991   -1.0000    0.0000 O.3     1  UNL1       -0.3865
      7 O           5.1350   -1.0000    0.0000 O.3     1  UNL1       -0.3841
      8 O           6.8671   -4.0000    0.0000 O.3     1  UNL1       -0.3841
      9 O           5.1350   -5.0000    0.0000 O.3     1  UNL1       -0.3864
     10 O           5.1350    1.0000    0.0000 O.3     1  UNL1       -0.3649
     11 O           3.4030   -4.0000    0.0000 O.3     1  UNL1       -0.3865
     12 O           8.5991    4.0000    0.0000 O.3     1  UNL1       -0.3841
     13 O          10.3312    5.0000    0.0000 O.3     1  UNL1       -0.3864
     14 O          12.0632    4.0000    0.0000 O.3     1  UNL1       -0.3865
     15 O           2.5369   -2.5000    0.0000 O.3     1  UNL1       -0.3924
     16 O          12.9292    2.5000    0.0000 O.3     1  UNL1       -0.3924
     17 C           6.8671   -1.0000    0.0000 C.3     1  UNL1        0.1206
     18 C           7.7331   -0.5000    0.0000 C.3     1  UNL1        0.1123
     19 C           7.7331    0.5000    0.0000 C.3     1  UNL1        0.1134
     20 C           6.0010   -0.5000    0.0000 C.3     1  UNL1        0.1343
     21 C           6.0010   -2.5000    0.0000 C.3     1  UNL1        0.1884
     22 C           6.0010   -3.5000    0.0000 C.3     1  UNL1        0.1341
     23 C           5.1350   -4.0000    0.0000 C.3     1  UNL1        0.1141
     24 C           6.0010    0.5000    0.0000 C.3     1  UNL1        0.1854
     25 C           4.2690   -3.5000    0.0000 C.3     1  UNL1        0.1119
     26 C           4.2690   -2.5000    0.0000 C.3     1  UNL1        0.1130
     27 C           8.5991    1.0000    0.0000 C.3     1  UNL1        0.0796
     28 C           9.4651    2.5000    0.0000 C.3     1  UNL1        0.1880
     29 C           9.4651    3.5000    0.0000 C.3     1  UNL1        0.1341
     30 C          10.3312    4.0000    0.0000 C.3     1  UNL1        0.1141
     31 C          11.1972    3.5000    0.0000 C.3     1  UNL1        0.1119
     32 C          11.1972    2.5000    0.0000 C.3     1  UNL1        0.1130
     33 C           3.4030   -2.0000    0.0000 C.3     1  UNL1        0.0730
     34 C          12.0632    2.0000    0.0000 C.3     1  UNL1        0.0730
     35 H           7.4040   -1.3100    0.0000 H       1  UNL1        0.0651
     36 H           8.2700   -0.1900    0.0000 H       1  UNL1        0.0647
     37 H           7.7331    1.1200    0.0000 H       1  UNL1        0.0647
     38 H           6.0010   -1.1200    0.0000 H       1  UNL1        0.0671
     39 H           6.0010   -1.8800    0.0000 H       1  UNL1        0.0938
     40 H           6.0010   -4.1200    0.0000 H       1  UNL1        0.0671
     41 H           4.5981   -4.3100    0.0000 H       1  UNL1        0.0648
     42 H           6.0010    1.1200    0.0000 H       1  UNL1        0.0935
     43 H           3.7320   -3.1900    0.0000 H       1  UNL1        0.0647
     44 H           4.2690   -1.8800    0.0000 H       1  UNL1        0.0647
     45 H           8.8112    0.4174    0.0000 H       1  UNL1        0.0587
     46 H           9.2097    1.1077    0.0000 H       1  UNL1        0.0587
     47 H           9.4651    1.8800    0.0000 H       1  UNL1        0.0937
     48 H           9.4651    4.1200    0.0000 H       1  UNL1        0.0671
     49 H          10.8681    4.3100    0.0000 H       1  UNL1        0.0648
     50 H          11.7341    3.1900    0.0000 H       1  UNL1        0.0647
     51 H          11.1972    1.8800    0.0000 H       1  UNL1        0.0647
     52 H           3.8015   -1.5250    0.0000 H       1  UNL1        0.0584
     53 H           3.0044   -1.5250    0.0000 H       1  UNL1        0.0584
     54 H           9.1360   -0.6900    0.0000 H       1  UNL1        0.2100
     55 H           4.5981   -0.6900    0.0000 H       1  UNL1        0.2101
     56 H          11.6647    1.5250    0.0000 H       1  UNL1        0.0584
     57 H          12.4617    1.5250    0.0000 H       1  UNL1        0.0584
     58 H           6.8671   -4.6200    0.0000 H       1  UNL1        0.2101
     59 H           4.5981   -5.3100    0.0000 H       1  UNL1        0.2100
     60 H           5.1350    1.6200    0.0000 H       1  UNL1        0.2126
     61 H           3.4030   -4.6200    0.0000 H       1  UNL1        0.2100
     62 H           8.5991    4.6200    0.0000 H       1  UNL1        0.2101
     63 H          10.8681    5.3100    0.0000 H       1  UNL1        0.2100
     64 H          12.0632    4.6200    0.0000 H       1  UNL1        0.2100
     65 H           2.0000   -2.1900    0.0000 H       1  UNL1        0.2095
     66 H          13.4662    2.1900    0.0000 H       1  UNL1        0.2095
@<TRIPOS>BOND
     1    17     1    1
     2    21     1    1
     3     2    19    1
     4     2    24    1
     5     3    21    1
     6     3    26    1
     7     4    27    1
     8    28     4    1
     9     5    28    1
    10     5    32    1
    11    18     6    1
    12     6    54    1
    13    20     7    1
    14     7    55    1
    15    22     8    1
    16     8    58    1
    17    23     9    1
    18     9    59    1
    19    24    10    1
    20    10    60    1
    21    25    11    1
    22    11    61    1
    23    29    12    1
    24    12    62    1
    25    30    13    1
    26    13    63    1
    27    31    14    1
    28    14    64    1
    29    15    33    1
    30    15    65    1
    31    16    34    1
    32    16    66    1
    33    17    18    1
    34    17    20    1
    35    17    35    1
    36    18    19    1
    37    18    36    1
    38    19    27    1
    39    19    37    1
    40    20    24    1
    41    20    38    1
    42    21    22    1
    43    21    39    1
    44    22    23    1
    45    22    40    1
    46    23    25    1
    47    23    41    1
    48    24    42    1
    49    25    26    1
    50    25    43    1
    51    26    33    1
    52    26    44    1
    53    27    45    1
    54    27    46    1
    55    28    29    1
    56    28    47    1
    57    29    30    1
    58    29    48    1
    59    30    31    1
    60    30    49    1
    61    31    32    1
    62    31    50    1
    63    32    34    1
    64    32    51    1
    65    33    52    1
    66    33    53    1
    67    34    56    1
    68    34    57    1
