@<TRIPOS>MOLECULE
IMPHY017689
 22 22 0 0 0
SMALL
GASTEIGER

@<TRIPOS>ATOM
      1 O           6.0010   -1.2500    0.0000 O.3     1  UNL1       -0.4951
      2 O           2.5369    0.7500    0.0000 O.3     1  UNL1       -0.5061
      3 O           3.4030    2.2500    0.0000 O.2     1  UNL1       -0.2922
      4 C           4.2690    0.7500    0.0000 C.ar    1  UNL1        0.0619
      5 C           5.1350    0.2500    0.0000 C.ar    1  UNL1       -0.0060
      6 C           3.4030    0.2500    0.0000 C.ar    1  UNL1        0.1275
      7 C           5.1350   -0.7500    0.0000 C.ar    1  UNL1        0.1210
      8 C           3.4030   -0.7500    0.0000 C.ar    1  UNL1       -0.0160
      9 C           4.2690   -1.2500    0.0000 C.ar    1  UNL1       -0.0165
     10 C           4.2690    1.7500    0.0000 C.2     1  UNL1        0.1637
     11 C           5.1350    2.2500    0.0000 C.3     1  UNL1       -0.0013
     12 C           6.0010   -2.2500    0.0000 C.3     1  UNL1        0.0788
     13 H           5.6720    0.5600    0.0000 H       1  UNL1        0.0662
     14 H           2.8660   -1.0600    0.0000 H       1  UNL1        0.0655
     15 H           4.2690   -1.8700    0.0000 H       1  UNL1        0.0655
     16 H           5.4450    1.7131    0.0000 H       1  UNL1        0.0309
     17 H           5.6720    2.5600    0.0000 H       1  UNL1        0.0309
     18 H           4.8250    2.7869    0.0000 H       1  UNL1        0.0309
     19 H           2.0000    0.4400    0.0000 H       1  UNL1        0.2922
     20 H           5.3810   -2.2500    0.0000 H       1  UNL1        0.0660
     21 H           6.0010   -2.8700    0.0000 H       1  UNL1        0.0660
     22 H           6.6210   -2.2500    0.0000 H       1  UNL1        0.0660
@<TRIPOS>BOND
     1     1     7    1
     2     1    12    1
     3     2     6    1
     4     2    19    1
     5     3    10    2
     6     4     5   ar
     7     4     6   ar
     8     4    10    1
     9     5     7   ar
    10     5    13    1
    11     6     8   ar
    12     7     9   ar
    13     8     9   ar
    14     8    14    1
    15     9    15    1
    16    10    11    1
    17    11    16    1
    18    11    17    1
    19    11    18    1
    20    12    20    1
    21    12    21    1
    22    12    22    1
