@<TRIPOS>MOLECULE
IMPHY000724
 126 133 0 0 0
SMALL
GASTEIGER

@<TRIPOS>ATOM
      1 O          18.3182    1.8777    0.0000 O.3     1  UNL1       -0.3876
      2 O          20.8423    0.3680    0.0000 O.3     1  UNL1       -0.4628
      3 O          12.9292    2.9508    0.0000 O.3     1  UNL1       -0.3480
      4 O          20.5108   -2.6934    0.0000 O.3     1  UNL1       -0.4571
      5 O          12.0632    1.4508    0.0000 O.3     1  UNL1       -0.3456
      6 O          19.2481   -3.9508    0.0000 O.2     1  UNL1       -0.2456
      7 O          22.3456    1.2282    0.0000 O.2     1  UNL1       -0.2546
      8 O           9.4651    2.9508    0.0000 O.3     1  UNL1       -0.3890
      9 O           9.4651    0.9508    0.0000 O.3     1  UNL1       -0.3429
     10 O           8.5991    2.4508    0.0000 O.3     1  UNL1       -0.3456
     11 O           6.0010    2.9508    0.0000 O.3     1  UNL1       -0.3429
     12 O           6.0010    0.9508    0.0000 O.3     1  UNL1       -0.3890
     13 O           4.2690    2.9508    0.0000 O.3     1  UNL1       -0.3456
     14 O           4.2690   -0.0492    0.0000 O.3     1  UNL1       -0.4587
     15 O           2.5369    0.9508    0.0000 O.3     1  UNL1       -0.3856
     16 O           2.5369   -0.0492    0.0000 O.2     1  UNL1       -0.2512
     17 C          18.3144    0.8777    0.0000 C.3     1  UNL1        0.0785
     18 C          17.4503    1.3810    0.0000 C.3     1  UNL1       -0.0081
     19 C          18.3105   -0.1223    0.0000 C.3     1  UNL1        0.0071
     20 C          16.5823    0.8844    0.0000 C.3     1  UNL1       -0.0299
     21 C          15.6743    1.3947    0.0000 C.3     1  UNL1       -0.0259
     22 C          15.6703    2.4364    0.0000 C.3     1  UNL1       -0.0330
     23 C          19.2556   -0.4307    0.0000 C.3     1  UNL1        0.0290
     24 C          17.4426   -0.6189    0.0000 C.3     1  UNL1       -0.0441
     25 C          16.5785   -0.1156    0.0000 C.3     1  UNL1       -0.0488
     26 C          19.2618    1.1788    0.0000 C.3     1  UNL1        0.0146
     27 C          17.4704    2.4225    0.0000 C.3     1  UNL1       -0.0470
     28 C          19.8423    0.3718    0.0000 C.3     1  UNL1        0.1126
     29 C          16.5744    2.9537    0.0000 C.3     1  UNL1       -0.0493
     30 C          14.7453    0.8342    0.0000 C.3     1  UNL1       -0.0448
     31 C          18.3067   -1.1223    0.0000 C.3     1  UNL1       -0.0563
     32 C          14.7370    2.9897    0.0000 C.3     1  UNL1       -0.0232
     33 C          15.6782    0.3947    0.0000 C.3     1  UNL1       -0.0590
     34 C          13.7994    1.3658    0.0000 C.3     1  UNL1       -0.0260
     35 C          13.7953    2.4508    0.0000 C.3     1  UNL1        0.0620
     36 C          19.5626   -1.3824    0.0000 C.2     1  UNL1       -0.0187
     37 C          20.5130   -1.6934    0.0000 C.3     1  UNL1        0.1148
     38 C          18.9731   -2.1901    0.0000 C.2     1  UNL1        0.0253
     39 C          19.5591   -3.0004    0.0000 C.2     1  UNL1        0.3323
     40 C          21.3456    1.2320    0.0000 C.2     1  UNL1        0.2945
     41 C          12.0632    2.4508    0.0000 C.3     1  UNL1        0.1624
     42 C          11.1972    2.9508    0.0000 C.3     1  UNL1        0.0270
     43 C          10.3312    2.4508    0.0000 C.3     1  UNL1        0.0884
     44 C          11.1972    0.9508    0.0000 C.3     1  UNL1        0.0875
     45 C          10.3312    1.4508    0.0000 C.3     1  UNL1        0.1134
     46 C          11.1972   -0.0492    0.0000 C.3     1  UNL1       -0.0361
     47 C           8.5991    1.4508    0.0000 C.3     1  UNL1        0.1626
     48 C           7.7331    0.9508    0.0000 C.3     1  UNL1        0.0270
     49 C           6.8671    1.4508    0.0000 C.3     1  UNL1        0.0884
     50 C           7.7331    2.9508    0.0000 C.3     1  UNL1        0.0875
     51 C           6.8671    2.4508    0.0000 C.3     1  UNL1        0.1134
     52 C           7.7331    3.9508    0.0000 C.3     1  UNL1       -0.0361
     53 C           5.1350    2.4508    0.0000 C.3     1  UNL1        0.1636
     54 C           5.1350    1.4508    0.0000 C.3     1  UNL1        0.0381
     55 C           4.2690    0.9508    0.0000 C.3     1  UNL1        0.1358
     56 C           3.4030    2.4508    0.0000 C.3     1  UNL1        0.0882
     57 C           3.4030    1.4508    0.0000 C.3     1  UNL1        0.1180
     58 C           2.5369    2.9508    0.0000 C.3     1  UNL1       -0.0360
     59 C           3.4030   -0.5492    0.0000 C.2     1  UNL1        0.3043
     60 C           3.4030   -1.5492    0.0000 C.3     1  UNL1        0.0332
     61 H          18.1913    1.7975    0.0000 H       1  UNL1        0.0331
     62 H          17.3168    0.4565    0.0000 H       1  UNL1        0.0310
     63 H          15.6768    3.2863    0.0000 H       1  UNL1        0.0307
     64 H          19.8677   -0.5292    0.0000 H       1  UNL1        0.0389
     65 H          17.0422   -1.0924    0.0000 H       1  UNL1        0.0272
     66 H          17.8393   -1.0954    0.0000 H       1  UNL1        0.0272
     67 H          15.9683   -0.0056    0.0000 H       1  UNL1        0.0268
     68 H          16.3642   -0.6974    0.0000 H       1  UNL1        0.0268
     69 H          19.8003    1.4859    0.0000 H       1  UNL1        0.0329
     70 H          19.0129    1.7466    0.0000 H       1  UNL1        0.0329
     71 H          18.0791    2.3046    0.0000 H       1  UNL1        0.0269
     72 H          17.6906    3.0020    0.0000 H       1  UNL1        0.0269
     73 H          20.1261    0.9230    0.0000 H       1  UNL1        0.0741
     74 H          16.9771    3.4250    0.0000 H       1  UNL1        0.0268
     75 H          16.1789    3.4312    0.0000 H       1  UNL1        0.0268
     76 H          14.3535    0.3537    0.0000 H       1  UNL1        0.0271
     77 H          15.1517    0.3660    0.0000 H       1  UNL1        0.0271
     78 H          17.6867   -1.1199    0.0000 H       1  UNL1        0.0236
     79 H          18.3043   -1.7423    0.0000 H       1  UNL1        0.0236
     80 H          18.9267   -1.1247    0.0000 H       1  UNL1        0.0236
     81 H          15.1398    3.4610    0.0000 H       1  UNL1        0.0293
     82 H          14.3415    3.4672    0.0000 H       1  UNL1        0.0293
     83 H          15.0582    0.3923    0.0000 H       1  UNL1        0.0235
     84 H          15.6805   -0.2253    0.0000 H       1  UNL1        0.0235
     85 H          16.2981    0.3971    0.0000 H       1  UNL1        0.0235
     86 H          13.1882    1.4696    0.0000 H       1  UNL1        0.0290
     87 H          13.5926    0.7813    0.0000 H       1  UNL1        0.0290
     88 H          13.7965    3.0708    0.0000 H       1  UNL1        0.0597
     89 H          18.8564    2.1856    0.0000 H       1  UNL1        0.2102
     90 H          21.1294   -1.7595    0.0000 H       1  UNL1        0.0746
     91 H          20.6431   -1.0872    0.0000 H       1  UNL1        0.0746
     92 H          18.3531   -2.1888    0.0000 H       1  UNL1        0.0690
     93 H          21.0377    1.7702    0.0000 H       1  UNL1        0.1512
     94 H          12.0632    3.0708    0.0000 H       1  UNL1        0.0910
     95 H          11.5957    3.4258    0.0000 H       1  UNL1        0.0340
     96 H          10.7987    3.4258    0.0000 H       1  UNL1        0.0340
     97 H          10.3312    3.0708    0.0000 H       1  UNL1        0.0622
     98 H          11.7341    0.6408    0.0000 H       1  UNL1        0.0621
     99 H           9.7942    1.7608    0.0000 H       1  UNL1        0.0649
    100 H          10.5772   -0.0492    0.0000 H       1  UNL1        0.0255
    101 H          11.1972   -0.6692    0.0000 H       1  UNL1        0.0255
    102 H          11.8172   -0.0492    0.0000 H       1  UNL1        0.0255
    103 H           9.4651    3.5708    0.0000 H       1  UNL1        0.2099
    104 H           8.5991    0.8308    0.0000 H       1  UNL1        0.0910
    105 H           7.3346    0.4759    0.0000 H       1  UNL1        0.0340
    106 H           8.1316    0.4759    0.0000 H       1  UNL1        0.0340
    107 H           6.3301    1.7608    0.0000 H       1  UNL1        0.0622
    108 H           8.2700    3.2608    0.0000 H       1  UNL1        0.0621
    109 H           6.8671    3.0708    0.0000 H       1  UNL1        0.0649
    110 H           8.3531    3.9508    0.0000 H       1  UNL1        0.0255
    111 H           7.7331    4.5708    0.0000 H       1  UNL1        0.0255
    112 H           7.1131    3.9508    0.0000 H       1  UNL1        0.0255
    113 H           6.0010    0.3308    0.0000 H       1  UNL1        0.2099
    114 H           5.1350    3.0708    0.0000 H       1  UNL1        0.0911
    115 H           5.3471    0.8682    0.0000 H       1  UNL1        0.0351
    116 H           5.7456    1.5585    0.0000 H       1  UNL1        0.0351
    117 H           4.8059    0.6408    0.0000 H       1  UNL1        0.0762
    118 H           3.4030    3.0708    0.0000 H       1  UNL1        0.0621
    119 H           2.8660    1.7608    0.0000 H       1  UNL1        0.0656
    120 H           2.8469    3.4877    0.0000 H       1  UNL1        0.0255
    121 H           2.0000    3.2608    0.0000 H       1  UNL1        0.0255
    122 H           2.2269    2.4139    0.0000 H       1  UNL1        0.0255
    123 H           2.0000    1.2608    0.0000 H       1  UNL1        0.2100
    124 H           2.7830   -1.5492    0.0000 H       1  UNL1        0.0342
    125 H           3.4030   -2.1692    0.0000 H       1  UNL1        0.0342
    126 H           4.0230   -1.5492    0.0000 H       1  UNL1        0.0342
@<TRIPOS>BOND
     1    17     1    1
     2     1    89    1
     3    28     2    1
     4     2    40    1
     5    35     3    1
     6    41     3    1
     7     4    37    1
     8     4    39    1
     9     5    41    1
    10     5    44    1
    11     6    39    2
    12     7    40    2
    13    43     8    1
    14     8   103    1
    15    45     9    1
    16    47     9    1
    17    10    47    1
    18    10    50    1
    19    51    11    1
    20    53    11    1
    21    49    12    1
    22    12   113    1
    23    13    53    1
    24    13    56    1
    25    55    14    1
    26    14    59    1
    27    57    15    1
    28    15   123    1
    29    16    59    2
    30    17    18    1
    31    17    19    1
    32    17    26    1
    33    18    20    1
    34    18    27    1
    35    18    61    1
    36    19    23    1
    37    19    24    1
    38    19    31    1
    39    20    21    1
    40    20    25    1
    41    20    62    1
    42    21    22    1
    43    21    30    1
    44    21    33    1
    45    22    29    1
    46    22    32    1
    47    22    63    1
    48    23    28    1
    49    23    36    1
    50    23    64    1
    51    24    25    1
    52    24    65    1
    53    24    66    1
    54    25    67    1
    55    25    68    1
    56    26    28    1
    57    26    69    1
    58    26    70    1
    59    27    29    1
    60    27    71    1
    61    27    72    1
    62    28    73    1
    63    29    74    1
    64    29    75    1
    65    30    34    1
    66    30    76    1
    67    30    77    1
    68    31    78    1
    69    31    79    1
    70    31    80    1
    71    32    35    1
    72    32    81    1
    73    32    82    1
    74    33    83    1
    75    33    84    1
    76    33    85    1
    77    34    35    1
    78    34    86    1
    79    34    87    1
    80    35    88    1
    81    36    37    1
    82    36    38    2
    83    37    90    1
    84    37    91    1
    85    38    39    1
    86    38    92    1
    87    40    93    1
    88    41    42    1
    89    41    94    1
    90    42    43    1
    91    42    95    1
    92    42    96    1
    93    43    45    1
    94    43    97    1
    95    44    45    1
    96    44    46    1
    97    44    98    1
    98    45    99    1
    99    46   100    1
   100    46   101    1
   101    46   102    1
   102    47    48    1
   103    47   104    1
   104    48    49    1
   105    48   105    1
   106    48   106    1
   107    49    51    1
   108    49   107    1
   109    50    51    1
   110    50    52    1
   111    50   108    1
   112    51   109    1
   113    52   110    1
   114    52   111    1
   115    52   112    1
   116    53    54    1
   117    53   114    1
   118    54    55    1
   119    54   115    1
   120    54   116    1
   121    55    57    1
   122    55   117    1
   123    56    57    1
   124    56    58    1
   125    56   118    1
   126    57   119    1
   127    58   120    1
   128    58   121    1
   129    58   122    1
   130    59    60    1
   131    60   124    1
   132    60   125    1
   133    60   126    1
