@<TRIPOS>MOLECULE
IMPHY011117
 50 51 0 0 0
SMALL
GASTEIGER

@<TRIPOS>ATOM
      1 O           4.9258   -3.7514    0.0000 O.3     1  UNL1       -0.4494
      2 O           4.2690    1.7204    0.0000 O.3     1  UNL1       -0.4570
      3 O           3.4371   -4.7204    0.0000 O.2     1  UNL1       -0.2453
      4 O           2.5369    1.7204    0.0000 O.2     1  UNL1       -0.2453
      5 C           4.2690   -2.2796    0.0000 C.2     1  UNL1       -0.0157
      6 C           5.1350   -2.7796    0.0000 C.3     1  UNL1        0.1437
      7 C           4.2690   -1.2796    0.0000 C.3     1  UNL1       -0.0234
      8 C           5.1350   -0.7796    0.0000 C.3     1  UNL1       -0.0247
      9 C           3.5320   -2.9466    0.0000 C.2     1  UNL1        0.0365
     10 C           5.1350    0.2204    0.0000 C.2     1  UNL1       -0.0362
     11 C           6.0010   -2.2796    0.0000 C.2     1  UNL1       -0.0408
     12 C           6.8671   -0.7796    0.0000 C.3     1  UNL1       -0.0284
     13 C           6.0010   -1.2796    0.0000 C.2     1  UNL1       -0.0725
     14 C           6.8671    0.2204    0.0000 C.3     1  UNL1       -0.0307
     15 C           6.0010    0.7204    0.0000 C.2     1  UNL1       -0.0813
     16 C           3.9371   -3.8544    0.0000 C.2     1  UNL1        0.3358
     17 C           4.2690    0.7204    0.0000 C.3     1  UNL1        0.1139
     18 C           2.5535   -2.7404    0.0000 C.3     1  UNL1       -0.0329
     19 C           5.7958   -0.7157    0.0000 C.3     1  UNL1       -0.0437
     20 C           3.4030    2.2204    0.0000 C.2     1  UNL1        0.3349
     21 C           3.4030    3.2204    0.0000 C.2     1  UNL1        0.0293
     22 C           4.2690    3.7204    0.0000 C.3     1  UNL1       -0.0333
     23 C           2.5369    3.7204    0.0000 C.2     1  UNL1       -0.0774
     24 C           2.5369    4.7204    0.0000 C.3     1  UNL1       -0.0461
     25 H           5.8220   -3.2801    0.0000 H       1  UNL1        0.0828
     26 H           4.0569   -0.6969    0.0000 H       1  UNL1        0.0315
     27 H           3.6584   -1.3872    0.0000 H       1  UNL1        0.0315
     28 H           5.3471   -1.3622    0.0000 H       1  UNL1        0.0314
     29 H           5.7456   -0.6719    0.0000 H       1  UNL1        0.0314
     30 H           6.5380   -2.5896    0.0000 H       1  UNL1        0.0611
     31 H           7.0791   -1.3622    0.0000 H       1  UNL1        0.0313
     32 H           7.4776   -0.6719    0.0000 H       1  UNL1        0.0313
     33 H           7.4776    0.1128    0.0000 H       1  UNL1        0.0310
     34 H           7.0791    0.8031    0.0000 H       1  UNL1        0.0310
     35 H           6.0010    1.3404    0.0000 H       1  UNL1        0.0573
     36 H           3.6584    0.8281    0.0000 H       1  UNL1        0.0745
     37 H           4.0569    0.1378    0.0000 H       1  UNL1        0.0745
     38 H           2.6813   -2.1337    0.0000 H       1  UNL1        0.0280
     39 H           1.9468   -2.6126    0.0000 H       1  UNL1        0.0280
     40 H           2.4256   -3.3471    0.0000 H       1  UNL1        0.0280
     41 H           6.3784   -0.5037    0.0000 H       1  UNL1        0.0274
     42 H           5.5838   -0.1331    0.0000 H       1  UNL1        0.0274
     43 H           5.2132   -0.9278    0.0000 H       1  UNL1        0.0274
     44 H           4.5790    3.1835    0.0000 H       1  UNL1        0.0280
     45 H           4.8059    4.0304    0.0000 H       1  UNL1        0.0280
     46 H           3.9590    4.2574    0.0000 H       1  UNL1        0.0280
     47 H           2.0000    3.4104    0.0000 H       1  UNL1        0.0574
     48 H           3.1569    4.7204    0.0000 H       1  UNL1        0.0272
     49 H           2.5369    5.3404    0.0000 H       1  UNL1        0.0272
     50 H           1.9169    4.7204    0.0000 H       1  UNL1        0.0272
@<TRIPOS>BOND
     1     1     6    1
     2     1    16    1
     3     2    17    1
     4     2    20    1
     5     3    16    2
     6     4    20    2
     7     5     6    1
     8     5     7    1
     9     5     9    2
    10     6    11    1
    11     6    25    1
    12     7     8    1
    13     7    26    1
    14     7    27    1
    15     8    10    1
    16     8    28    1
    17     8    29    1
    18     9    16    1
    19     9    18    1
    20    10    15    2
    21    10    17    1
    22    11    13    2
    23    11    30    1
    24    12    13    1
    25    12    14    1
    26    12    31    1
    27    12    32    1
    28    13    19    1
    29    14    15    1
    30    14    33    1
    31    14    34    1
    32    15    35    1
    33    17    36    1
    34    17    37    1
    35    18    38    1
    36    18    39    1
    37    18    40    1
    38    19    41    1
    39    19    42    1
    40    19    43    1
    41    20    21    1
    42    21    22    1
    43    21    23    2
    44    22    44    1
    45    22    45    1
    46    22    46    1
    47    23    24    1
    48    23    47    1
    49    24    48    1
    50    24    49    1
    51    24    50    1
