@<TRIPOS>MOLECULE
IMPHY011279
 121 128 0 0 0
SMALL
GASTEIGER

@<TRIPOS>ATOM
      1 O           6.8671   -2.6888    0.0000 O.3     1  UNL1       -0.3443
      2 O           9.2738   -2.0189    0.0000 O.3     1  UNL1       -0.4802
      3 O           9.2604   -0.2870    0.0000 O.2     1  UNL1       -0.2503
      4 O           7.7597    6.3531    0.0000 O.3     1  UNL1       -0.4575
      5 O           5.1350   -2.6888    0.0000 O.3     1  UNL1       -0.3405
      6 O           6.8671   -4.6888    0.0000 O.3     1  UNL1       -0.3378
      7 O           5.1350   -5.6888    0.0000 O.3     1  UNL1       -0.3864
      8 O           9.0622    7.4948    0.0000 O.2     1  UNL1       -0.2453
      9 O           3.4030   -4.6888    0.0000 O.3     1  UNL1       -0.3865
     10 O           2.5369   -3.1888    0.0000 O.3     1  UNL1       -0.3924
     11 O           6.0010   -6.1888    0.0000 O.3     1  UNL1       -0.3405
     12 O           8.5991   -5.6888    0.0000 O.3     1  UNL1       -0.3841
     13 O           8.5991   -7.6888    0.0000 O.3     1  UNL1       -0.3864
     14 O           6.8671   -8.6888    0.0000 O.3     1  UNL1       -0.3865
     15 O           4.2690   -7.1888    0.0000 O.3     1  UNL1       -0.3924
     16 C           6.8948    1.3804    0.0000 C.3     1  UNL1       -0.0194
     17 C           6.8910    0.3804    0.0000 C.3     1  UNL1       -0.0188
     18 C           6.0264    0.8837    0.0000 C.3     1  UNL1       -0.0401
     19 C           7.7628    1.8770    0.0000 C.3     1  UNL1       -0.0289
     20 C           7.7551   -0.1230    0.0000 C.3     1  UNL1       -0.0169
     21 C           7.7829    2.9185    0.0000 C.3     1  UNL1       -0.0231
     22 C           5.9868    1.8907    0.0000 C.3     1  UNL1       -0.0460
     23 C           6.8869    3.4497    0.0000 C.3     1  UNL1       -0.0232
     24 C           5.9790   -0.1230    0.0000 C.3     1  UNL1       -0.0442
     25 C           8.6269    1.3737    0.0000 C.3     1  UNL1       -0.0489
     26 C           8.6230    0.3737    0.0000 C.3     1  UNL1       -0.0483
     27 C           5.9828    2.9324    0.0000 C.3     1  UNL1       -0.0463
     28 C           7.7671   -1.1645    0.0000 C.3     1  UNL1        0.0941
     29 C           7.1165    4.4594    0.0000 C.3     1  UNL1       -0.0292
     30 C           8.5586    3.6044    0.0000 C.3     1  UNL1       -0.0466
     31 C           5.9670   -1.1645    0.0000 C.3     1  UNL1       -0.0249
     32 C           6.8671   -1.6888    0.0000 C.3     1  UNL1        0.0775
     33 C           8.1475    4.5548    0.0000 C.3     1  UNL1       -0.0488
     34 C           8.6430    2.4085    0.0000 C.3     1  UNL1       -0.0588
     35 C           6.0267    3.9597    0.0000 C.3     1  UNL1       -0.0588
     36 C           6.4573    5.2113    0.0000 C.3     1  UNL1       -0.0030
     37 C           8.2738   -2.0267    0.0000 C.3     1  UNL1       -0.0467
     38 C           8.7671   -1.1568    0.0000 C.2     1  UNL1        0.3135
     39 C           6.7789    6.1582    0.0000 C.3     1  UNL1        0.1096
     40 C           5.4765    5.0164    0.0000 C.3     1  UNL1       -0.0588
     41 C           6.0010   -3.1888    0.0000 C.3     1  UNL1        0.1886
     42 C           6.1197    6.9102    0.0000 C.3     1  UNL1        0.0036
     43 C           6.0010   -4.1888    0.0000 C.3     1  UNL1        0.1406
     44 C           6.4414    7.8570    0.0000 C.2     1  UNL1       -0.0708
     45 C           5.1350   -4.6888    0.0000 C.3     1  UNL1        0.1144
     46 C           8.0814    7.3000    0.0000 C.2     1  UNL1        0.3349
     47 C           4.2690   -3.1888    0.0000 C.3     1  UNL1        0.1130
     48 C           7.4222    8.0519    0.0000 C.2     1  UNL1        0.0297
     49 C           4.2690   -4.1888    0.0000 C.3     1  UNL1        0.1119
     50 C           3.4030   -2.6888    0.0000 C.3     1  UNL1        0.0730
     51 C           7.7438    8.9988    0.0000 C.3     1  UNL1       -0.0332
     52 C           6.8671   -5.6888    0.0000 C.3     1  UNL1        0.1885
     53 C           7.7331   -6.1888    0.0000 C.3     1  UNL1        0.1341
     54 C           7.7331   -7.1888    0.0000 C.3     1  UNL1        0.1141
     55 C           6.0010   -7.1888    0.0000 C.3     1  UNL1        0.1130
     56 C           6.8671   -7.6888    0.0000 C.3     1  UNL1        0.1119
     57 C           5.1350   -7.6888    0.0000 C.3     1  UNL1        0.0730
     58 H           5.6297    1.3602    0.0000 H       1  UNL1        0.0276
     59 H           5.6261    0.4103    0.0000 H       1  UNL1        0.0276
     60 H           8.5038    2.2935    0.0000 H       1  UNL1        0.0312
     61 H           8.4928   -0.5451    0.0000 H       1  UNL1        0.0318
     62 H           5.3755    1.9945    0.0000 H       1  UNL1        0.0271
     63 H           5.7800    1.3062    0.0000 H       1  UNL1        0.0271
     64 H           5.7768    0.4631    0.0000 H       1  UNL1        0.0272
     65 H           5.3670   -0.2220    0.0000 H       1  UNL1        0.0272
     66 H           9.2370    1.2637    0.0000 H       1  UNL1        0.0268
     67 H           8.8412    1.9555    0.0000 H       1  UNL1        0.0268
     68 H           8.8328   -0.2097    0.0000 H       1  UNL1        0.0269
     69 H           9.2340    0.4790    0.0000 H       1  UNL1        0.0269
     70 H           5.7715    3.5152    0.0000 H       1  UNL1        0.0271
     71 H           5.3724    2.8239    0.0000 H       1  UNL1        0.0271
     72 H           7.4313    5.2489    0.0000 H       1  UNL1        0.0310
     73 H           8.9182    3.0994    0.0000 H       1  UNL1        0.0271
     74 H           9.0986    3.9090    0.0000 H       1  UNL1        0.0271
     75 H           5.3574   -1.0514    0.0000 H       1  UNL1        0.0291
     76 H           5.7512   -1.7458    0.0000 H       1  UNL1        0.0291
     77 H           7.4046   -1.9978    0.0000 H       1  UNL1        0.0608
     78 H           8.7393    4.7397    0.0000 H       1  UNL1        0.0268
     79 H           8.0258    5.1627    0.0000 H       1  UNL1        0.0268
     80 H           8.3269    1.8752    0.0000 H       1  UNL1        0.0235
     81 H           9.1764    2.0923    0.0000 H       1  UNL1        0.0235
     82 H           8.9592    2.9418    0.0000 H       1  UNL1        0.0235
     83 H           6.3429    4.4930    0.0000 H       1  UNL1        0.0235
     84 H           5.4934    4.2758    0.0000 H       1  UNL1        0.0235
     85 H           5.7105    3.4264    0.0000 H       1  UNL1        0.0235
     86 H           6.2579    4.6243    0.0000 H       1  UNL1        0.0337
     87 H           7.7393   -2.3408    0.0000 H       1  UNL1        0.0241
     88 H           8.5879   -2.5612    0.0000 H       1  UNL1        0.0241
     89 H           8.8083   -1.7125    0.0000 H       1  UNL1        0.0241
     90 H           7.3392    5.5190    0.0000 H       1  UNL1        0.0740
     91 H           5.3556    5.6246    0.0000 H       1  UNL1        0.0234
     92 H           4.8683    4.8956    0.0000 H       1  UNL1        0.0234
     93 H           5.5973    4.4083    0.0000 H       1  UNL1        0.0234
     94 H           6.0010   -2.5688    0.0000 H       1  UNL1        0.0938
     95 H           9.8937   -2.0142    0.0000 H       1  UNL1        0.2951
     96 H           5.5762    7.2085    0.0000 H       1  UNL1        0.0343
     97 H           5.7316    6.4267    0.0000 H       1  UNL1        0.0343
     98 H           6.0010   -4.8088    0.0000 H       1  UNL1        0.0675
     99 H           6.0326    8.3233    0.0000 H       1  UNL1        0.0578
    100 H           4.5981   -4.9988    0.0000 H       1  UNL1        0.0648
    101 H           4.2690   -2.5688    0.0000 H       1  UNL1        0.0647
    102 H           3.7320   -3.8788    0.0000 H       1  UNL1        0.0647
    103 H           3.8015   -2.2138    0.0000 H       1  UNL1        0.0584
    104 H           3.0044   -2.2138    0.0000 H       1  UNL1        0.0584
    105 H           8.3309    8.7994    0.0000 H       1  UNL1        0.0280
    106 H           7.9432    9.5859    0.0000 H       1  UNL1        0.0280
    107 H           7.1568    9.1982    0.0000 H       1  UNL1        0.0280
    108 H           4.5981   -5.9988    0.0000 H       1  UNL1        0.2100
    109 H           7.4040   -5.3788    0.0000 H       1  UNL1        0.0938
    110 H           3.4030   -5.3088    0.0000 H       1  UNL1        0.2100
    111 H           8.2700   -6.4988    0.0000 H       1  UNL1        0.0671
    112 H           2.0000   -2.8788    0.0000 H       1  UNL1        0.2095
    113 H           7.7331   -7.8088    0.0000 H       1  UNL1        0.0648
    114 H           5.4641   -6.8788    0.0000 H       1  UNL1        0.0647
    115 H           6.3301   -7.9988    0.0000 H       1  UNL1        0.0647
    116 H           9.1360   -5.9988    0.0000 H       1  UNL1        0.2101
    117 H           4.7365   -8.1638    0.0000 H       1  UNL1        0.0584
    118 H           5.5335   -8.1638    0.0000 H       1  UNL1        0.0584
    119 H           8.5991   -8.3088    0.0000 H       1  UNL1        0.2100
    120 H           6.3301   -8.9988    0.0000 H       1  UNL1        0.2100
    121 H           3.7320   -7.4988    0.0000 H       1  UNL1        0.2095
@<TRIPOS>BOND
     1    32     1    1
     2    41     1    1
     3     2    38    1
     4     2    95    1
     5     3    38    2
     6     4    39    1
     7     4    46    1
     8     5    41    1
     9     5    47    1
    10    43     6    1
    11    52     6    1
    12    45     7    1
    13     7   108    1
    14     8    46    2
    15    49     9    1
    16     9   110    1
    17    10    50    1
    18    10   112    1
    19    11    52    1
    20    11    55    1
    21    53    12    1
    22    12   116    1
    23    54    13    1
    24    13   119    1
    25    56    14    1
    26    14   120    1
    27    15    57    1
    28    15   121    1
    29    16    17    1
    30    16    18    1
    31    16    19    1
    32    16    22    1
    33    17    18    1
    34    17    20    1
    35    17    24    1
    36    18    58    1
    37    18    59    1
    38    19    21    1
    39    19    25    1
    40    19    60    1
    41    20    26    1
    42    20    28    1
    43    20    61    1
    44    21    23    1
    45    21    30    1
    46    21    34    1
    47    22    27    1
    48    22    62    1
    49    22    63    1
    50    23    27    1
    51    23    29    1
    52    23    35    1
    53    24    31    1
    54    24    64    1
    55    24    65    1
    56    25    26    1
    57    25    66    1
    58    25    67    1
    59    26    68    1
    60    26    69    1
    61    27    70    1
    62    27    71    1
    63    28    32    1
    64    28    37    1
    65    28    38    1
    66    29    33    1
    67    29    36    1
    68    29    72    1
    69    30    33    1
    70    30    73    1
    71    30    74    1
    72    31    32    1
    73    31    75    1
    74    31    76    1
    75    32    77    1
    76    33    78    1
    77    33    79    1
    78    34    80    1
    79    34    81    1
    80    34    82    1
    81    35    83    1
    82    35    84    1
    83    35    85    1
    84    36    39    1
    85    36    40    1
    86    36    86    1
    87    37    87    1
    88    37    88    1
    89    37    89    1
    90    39    42    1
    91    39    90    1
    92    40    91    1
    93    40    92    1
    94    40    93    1
    95    41    43    1
    96    41    94    1
    97    42    44    1
    98    42    96    1
    99    42    97    1
   100    43    45    1
   101    43    98    1
   102    44    48    2
   103    44    99    1
   104    45    49    1
   105    45   100    1
   106    46    48    1
   107    47    49    1
   108    47    50    1
   109    47   101    1
   110    48    51    1
   111    49   102    1
   112    50   103    1
   113    50   104    1
   114    51   105    1
   115    51   106    1
   116    51   107    1
   117    52    53    1
   118    52   109    1
   119    53    54    1
   120    53   111    1
   121    54    56    1
   122    54   113    1
   123    55    56    1
   124    55    57    1
   125    55   114    1
   126    56   115    1
   127    57   117    1
   128    57   118    1
