@<TRIPOS>MOLECULE
IMPHY004369
 51 53 0 0 0
SMALL
GASTEIGER

@<TRIPOS>ATOM
      1 O           6.8671   -1.0950    0.0000 O.3     1  UNL1       -0.3061
      2 O           5.1350   -1.0950    0.0000 O.3     1  UNL1       -0.3404
      3 O           6.0010    0.4050    0.0000 O.2     1  UNL1       -0.4666
      4 O          10.2629    0.9050    0.0000 O.3     1  UNL1       -0.3875
      5 O           6.8671   -3.0950    0.0000 O.3     1  UNL1       -0.3841
      6 O           5.1350   -4.0950    0.0000 O.3     1  UNL1       -0.3864
      7 O           3.4030   -3.0950    0.0000 O.3     1  UNL1       -0.3865
      8 O           2.5369   -1.5950    0.0000 O.3     1  UNL1       -0.3924
      9 O           6.0010    3.4050    0.0000 O.3     1  UNL1       -0.4646
     10 O           7.7331    3.4050    0.0000 O.2     1  UNL1       -0.2452
     11 C           7.7331    1.4050    0.0000 C.3     1  UNL1        0.0236
     12 C           7.7331    0.4050    0.0000 C.2     1  UNL1        0.0070
     13 C           8.6793    1.7097    0.0000 C.3     1  UNL1       -0.0119
     14 C           9.2629    0.9050    0.0000 C.3     1  UNL1        0.0773
     15 C           8.6793    0.1003    0.0000 C.2     1  UNL1       -0.0389
     16 C           6.8671   -0.0950    0.0000 C.3     1  UNL1        0.2269
     17 C           6.0010   -1.5950    0.0000 C.3     1  UNL1        0.1921
     18 C           6.0010   -2.5950    0.0000 C.3     1  UNL1        0.1343
     19 C           5.1350   -3.0950    0.0000 C.3     1  UNL1        0.1141
     20 C           4.2690   -2.5950    0.0000 C.3     1  UNL1        0.1119
     21 C           4.2690   -1.5950    0.0000 C.3     1  UNL1        0.1130
     22 C           6.8671    1.9050    0.0000 C.2     1  UNL1        0.0781
     23 C           8.9900   -0.8503    0.0000 C.3     1  UNL1       -0.0409
     24 C           6.0010    1.4050    0.0000 C.2     1  UNL1        0.0988
     25 C           3.4030   -1.0950    0.0000 C.3     1  UNL1        0.0730
     26 C           6.8671    2.9050    0.0000 C.2     1  UNL1        0.3384
     27 C           6.0010    4.4050    0.0000 C.3     1  UNL1        0.0820
     28 H           7.8230    2.2502    0.0000 H       1  UNL1        0.0400
     29 H           9.2167    2.0190    0.0000 H       1  UNL1        0.0302
     30 H           8.4283    2.2766    0.0000 H       1  UNL1        0.0302
     31 H           9.5446    1.4573    0.0000 H       1  UNL1        0.0640
     32 H           7.4040   -0.4050    0.0000 H       1  UNL1        0.1109
     33 H           6.0010   -0.9750    0.0000 H       1  UNL1        0.0939
     34 H           6.0010   -3.2150    0.0000 H       1  UNL1        0.0671
     35 H           4.5981   -3.4050    0.0000 H       1  UNL1        0.0648
     36 H           3.7320   -2.2850    0.0000 H       1  UNL1        0.0647
     37 H           4.2690   -0.9750    0.0000 H       1  UNL1        0.0647
     38 H           8.4006   -1.0429    0.0000 H       1  UNL1        0.0275
     39 H           9.1826   -1.4396    0.0000 H       1  UNL1        0.0275
     40 H           9.5793   -0.6576    0.0000 H       1  UNL1        0.0275
     41 H           5.4641    1.7150    0.0000 H       1  UNL1        0.1030
     42 H           3.8015   -0.6201    0.0000 H       1  UNL1        0.0584
     43 H           3.0044   -0.6201    0.0000 H       1  UNL1        0.0584
     44 H          10.5729    1.4419    0.0000 H       1  UNL1        0.2102
     45 H           6.8671   -3.7150    0.0000 H       1  UNL1        0.2101
     46 H           4.5981   -4.4050    0.0000 H       1  UNL1        0.2100
     47 H           3.4030   -3.7150    0.0000 H       1  UNL1        0.2100
     48 H           2.0000   -1.2850    0.0000 H       1  UNL1        0.2095
     49 H           6.6210    4.4050    0.0000 H       1  UNL1        0.0661
     50 H           6.0010    5.0250    0.0000 H       1  UNL1        0.0661
     51 H           5.3810    4.4050    0.0000 H       1  UNL1        0.0661
@<TRIPOS>BOND
     1    16     1    1
     2    17     1    1
     3     2    17    1
     4     2    21    1
     5     3    16    1
     6     3    24    1
     7    14     4    1
     8     4    44    1
     9    18     5    1
    10     5    45    1
    11    19     6    1
    12     6    46    1
    13    20     7    1
    14     7    47    1
    15     8    25    1
    16     8    48    1
    17     9    26    1
    18     9    27    1
    19    10    26    2
    20    11    12    1
    21    11    13    1
    22    11    22    1
    23    11    28    1
    24    12    15    2
    25    12    16    1
    26    13    14    1
    27    13    29    1
    28    13    30    1
    29    14    15    1
    30    14    31    1
    31    15    23    1
    32    16    32    1
    33    17    18    1
    34    17    33    1
    35    18    19    1
    36    18    34    1
    37    19    20    1
    38    19    35    1
    39    20    21    1
    40    20    36    1
    41    21    25    1
    42    21    37    1
    43    22    24    2
    44    22    26    1
    45    23    38    1
    46    23    39    1
    47    23    40    1
    48    24    41    1
    49    25    42    1
    50    25    43    1
    51    27    49    1
    52    27    50    1
    53    27    51    1
