@<TRIPOS>MOLECULE
IMPHY010627
 51 55 0 0 0
SMALL
GASTEIGER

@<TRIPOS>ATOM
      1 O          10.5680    1.1507    0.0000 O.2     1  UNL1       -0.2912
      2 O          13.8276   -2.4639    0.0000 O.3     1  UNL1       -0.2868
      3 O           9.8100   -2.6638    0.0000 O.3     1  UNL1       -0.2867
      4 O           9.8100    0.8003    0.0000 O.3     1  UNL1       -0.2868
      5 O          10.6500    2.3873    0.0000 O.3     1  UNL1       -0.2867
      6 O          16.4813   -0.2372    0.0000 O.3     1  UNL1       -0.2865
      7 O          13.9052    3.5721    0.0000 O.3     1  UNL1       -0.2868
      8 O           8.3100   -3.5298    0.0000 O.2     1  UNL1       -0.2865
      9 O           5.3099   -5.2618    0.0000 O.3     1  UNL1       -0.2865
     10 O           2.3100   -3.5299    0.0000 O.3     1  UNL1       -0.2865
     11 C          11.6760   -0.4318    0.0000 C.3     1  UNL1        0.0704
     12 C          12.5421   -0.9318    0.0000 C.3     1  UNL1        0.0371
     13 C          10.8100   -0.9318    0.0000 C.3     1  UNL1        0.0313
     14 C          12.5421   -1.9318    0.0000 C.3     1  UNL1        0.0266
     15 C          11.6760   -2.4318    0.0000 C.2     1  UNL1       -0.0478
     16 C          10.8100   -1.9318    0.0000 C.2     1  UNL1       -0.0345
     17 C          13.5269   -0.7581    0.0000 C.ar    1  UNL1        0.0174
     18 C           9.8100   -0.9318    0.0000 C.ar    1  UNL1        0.0555
     19 C          11.3340    0.5079    0.0000 C.2     1  UNL1        0.1763
     20 C          11.6760   -3.4318    0.0000 C.3     1  UNL1        0.0260
     21 C          11.9768    1.2740    0.0000 C.ar    1  UNL1        0.0735
     22 C          14.1696   -1.5242    0.0000 C.ar    1  UNL1        0.1949
     23 C           9.3099   -1.7977    0.0000 C.ar    1  UNL1        0.1978
     24 C          13.8689    0.1816    0.0000 C.ar    1  UNL1        0.0022
     25 C           9.3100   -0.0658    0.0000 C.ar    1  UNL1        0.1948
     26 C           8.3100   -1.7978    0.0000 C.ar    1  UNL1        0.0777
     27 C          11.6348    2.2137    0.0000 C.ar    1  UNL1        0.1978
     28 C          15.1545   -1.3505    0.0000 C.ar    1  UNL1        0.0837
     29 C          14.8537    0.3552    0.0000 C.ar    1  UNL1        0.0419
     30 C           8.3100   -0.0658    0.0000 C.ar    1  UNL1        0.0420
     31 C          12.9616    1.1003    0.0000 C.ar    1  UNL1        0.0093
     32 C           7.8100   -0.9318    0.0000 C.ar    1  UNL1        0.0096
     33 C          15.4965   -0.4108    0.0000 C.ar    1  UNL1        0.1989
     34 C          12.2776    2.9797    0.0000 C.ar    1  UNL1        0.0600
     35 C          13.6044    1.8664    0.0000 C.ar    1  UNL1        0.0420
     36 C          13.2624    2.8061    0.0000 C.ar    1  UNL1        0.1951
     37 C           7.8099   -2.6637    0.0000 C.2     1  UNL1        0.1987
     38 C          11.9355    3.9194    0.0000 C.3     1  UNL1        0.0582
     39 C           6.8100   -2.6638    0.0000 C.2     1  UNL1        0.0422
     40 C          10.9507    4.0930    0.0000 C.2     1  UNL1       -0.0296
     41 C          10.6087    5.0327    0.0000 C.2     1  UNL1       -0.0475
     42 C           6.3099   -3.5298    0.0000 C.2     1  UNL1        0.0065
     43 C          11.2515    5.7988    0.0000 C.3     1  UNL1        0.0260
     44 C           9.6239    5.2064    0.0000 C.3     1  UNL1        0.0260
     45 C           5.3100   -3.5299    0.0000 C.ar    1  UNL1        0.0393
     46 C           4.8099   -4.3958    0.0000 C.ar    1  UNL1        0.1988
     47 C           4.8100   -2.6638    0.0000 C.ar    1  UNL1        0.0065
     48 C           3.8100   -4.3959    0.0000 C.ar    1  UNL1        0.0840
     49 C           3.8100   -2.6638    0.0000 C.ar    1  UNL1        0.0422
     50 C           3.3100   -3.5299    0.0000 C.ar    1  UNL1        0.1989
     51 H          10.6029   -0.1590    0.0000 H       1  UNL1        0.0410
@<TRIPOS>BOND
     1     1    19    2
     2     2    22    1
     3     3    23    1
     4     4    25    1
     5     5    27    1
     6     6    33    1
     7     7    36    1
     8     8    37    2
     9     9    46    1
    10    10    50    1
    11    11    12    1
    12    11    13    1
    13    11    19    1
    14    12    14    1
    15    12    17    1
    16    13    16    1
    17    13    18    1
    18    13    51    1
    19    14    15    1
    20    15    16    2
    21    15    20    1
    22    17    22   ar
    23    17    24   ar
    24    18    23   ar
    25    18    25   ar
    26    19    21    1
    27    21    27   ar
    28    21    31   ar
    29    22    28   ar
    30    23    26   ar
    31    24    29   ar
    32    25    30   ar
    33    26    32   ar
    34    26    37    1
    35    27    34   ar
    36    28    33   ar
    37    29    33   ar
    38    30    32   ar
    39    31    35   ar
    40    34    36   ar
    41    34    38    1
    42    35    36   ar
    43    37    39    1
    44    38    40    1
    45    39    42    2
    46    40    41    2
    47    41    43    1
    48    41    44    1
    49    42    45    1
    50    45    46   ar
    51    45    47   ar
    52    46    48   ar
    53    47    49   ar
    54    48    50   ar
    55    49    50   ar
