@<TRIPOS>MOLECULE
IMPHY010054
 52 51 0 0 0
SMALL
GASTEIGER

@<TRIPOS>ATOM
      1 O           8.9282   -0.7500    0.0000 O.2     1  UNL1       -0.2974
      2 C           6.3301    0.7500    0.0000 C.3     1  UNL1       -0.0527
      3 C          11.5263    0.7500    0.0000 C.3     1  UNL1       -0.0527
      4 C           5.4641    0.2500    0.0000 C.3     1  UNL1       -0.0530
      5 C          12.3923    0.2500    0.0000 C.3     1  UNL1       -0.0530
      6 C           7.1962    0.2500    0.0000 C.3     1  UNL1       -0.0464
      7 C          10.6603    0.2500    0.0000 C.3     1  UNL1       -0.0464
      8 C           4.5981    0.7500    0.0000 C.3     1  UNL1       -0.0531
      9 C          13.2583    0.7500    0.0000 C.3     1  UNL1       -0.0531
     10 C           9.7942    0.7500    0.0000 C.3     1  UNL1        0.0058
     11 C           8.0622    0.7500    0.0000 C.3     1  UNL1        0.0058
     12 C           8.9282    0.2500    0.0000 C.2     1  UNL1        0.1334
     13 C          14.1244    0.2500    0.0000 C.3     1  UNL1       -0.0533
     14 C           3.7320    0.2500    0.0000 C.3     1  UNL1       -0.0533
     15 C           2.8660    0.7500    0.0000 C.3     1  UNL1       -0.0559
     16 C          14.9904    0.7500    0.0000 C.3     1  UNL1       -0.0559
     17 C          15.8564    0.2500    0.0000 C.3     1  UNL1       -0.0653
     18 C           2.0000    0.2500    0.0000 C.3     1  UNL1       -0.0653
     19 H          11.9248    1.2250    0.0000 H       1  UNL1        0.0265
     20 H          11.1278    1.2250    0.0000 H       1  UNL1        0.0265
     21 H           6.7287    1.2250    0.0000 H       1  UNL1        0.0265
     22 H           5.9316    1.2250    0.0000 H       1  UNL1        0.0265
     23 H          11.9938   -0.2249    0.0000 H       1  UNL1        0.0265
     24 H          12.7908   -0.2249    0.0000 H       1  UNL1        0.0265
     25 H           5.0656   -0.2249    0.0000 H       1  UNL1        0.0265
     26 H           5.8626   -0.2249    0.0000 H       1  UNL1        0.0265
     27 H          10.2617   -0.2249    0.0000 H       1  UNL1        0.0269
     28 H          11.0588   -0.2249    0.0000 H       1  UNL1        0.0269
     29 H           6.7976   -0.2249    0.0000 H       1  UNL1        0.0269
     30 H           7.5947   -0.2249    0.0000 H       1  UNL1        0.0269
     31 H           4.9966    1.2250    0.0000 H       1  UNL1        0.0265
     32 H           4.1996    1.2250    0.0000 H       1  UNL1        0.0265
     33 H          13.6569    1.2250    0.0000 H       1  UNL1        0.0265
     34 H          12.8598    1.2250    0.0000 H       1  UNL1        0.0265
     35 H           8.4607    1.2250    0.0000 H       1  UNL1        0.0342
     36 H           7.6636    1.2250    0.0000 H       1  UNL1        0.0342
     37 H          10.1928    1.2250    0.0000 H       1  UNL1        0.0342
     38 H           9.3957    1.2250    0.0000 H       1  UNL1        0.0342
     39 H           3.3335   -0.2249    0.0000 H       1  UNL1        0.0265
     40 H           4.1306   -0.2249    0.0000 H       1  UNL1        0.0265
     41 H          13.7258   -0.2249    0.0000 H       1  UNL1        0.0265
     42 H          14.5229   -0.2249    0.0000 H       1  UNL1        0.0265
     43 H          15.3889    1.2250    0.0000 H       1  UNL1        0.0263
     44 H          14.5919    1.2250    0.0000 H       1  UNL1        0.0263
     45 H           3.2646    1.2250    0.0000 H       1  UNL1        0.0263
     46 H           2.4675    1.2250    0.0000 H       1  UNL1        0.0263
     47 H           1.6900    0.7869    0.0000 H       1  UNL1        0.0230
     48 H           1.4631   -0.0600    0.0000 H       1  UNL1        0.0230
     49 H           2.3100   -0.2869    0.0000 H       1  UNL1        0.0230
     50 H          15.5464   -0.2869    0.0000 H       1  UNL1        0.0230
     51 H          16.3933   -0.0600    0.0000 H       1  UNL1        0.0230
     52 H          16.1664    0.7869    0.0000 H       1  UNL1        0.0230
@<TRIPOS>BOND
     1     1    12    2
     2     2     4    1
     3     2     6    1
     4     2    21    1
     5     2    22    1
     6     3     5    1
     7     3     7    1
     8     3    19    1
     9     3    20    1
    10     4     8    1
    11     4    25    1
    12     4    26    1
    13     5     9    1
    14     5    23    1
    15     5    24    1
    16     6    11    1
    17     6    29    1
    18     6    30    1
    19     7    10    1
    20     7    27    1
    21     7    28    1
    22     8    14    1
    23     8    31    1
    24     8    32    1
    25     9    13    1
    26     9    33    1
    27     9    34    1
    28    10    12    1
    29    10    37    1
    30    10    38    1
    31    11    12    1
    32    11    35    1
    33    11    36    1
    34    13    16    1
    35    13    41    1
    36    13    42    1
    37    14    15    1
    38    14    39    1
    39    14    40    1
    40    15    18    1
    41    15    45    1
    42    15    46    1
    43    16    17    1
    44    16    43    1
    45    16    44    1
    46    17    50    1
    47    17    51    1
    48    17    52    1
    49    18    47    1
    50    18    48    1
    51    18    49    1
