@<TRIPOS>MOLECULE
IMPHY009073
 37 39 0 0 0
SMALL
GASTEIGER

@<TRIPOS>ATOM
      1 O           5.5301   -2.9279    0.0000 O.2     1  UNL1       -0.4219
      2 O           3.7817    0.1067    0.0000 O.3     1  UNL1       -0.4943
      3 O           5.5301    3.0721    0.0000 O.3     1  UNL1       -0.4915
      4 O           2.0000   -2.9521    0.0000 O.3     1  UNL1       -0.5065
      5 O           7.2622    2.0721    0.0000 O.3     1  UNL1       -0.5033
      6 O           7.2622   -2.9279    0.0000 O.2     1  UNL1       -0.2452
      7 C           4.6641   -1.4279    0.0000 C.ar    1  UNL1        0.0671
      8 C           5.5301   -0.9279    0.0000 C.ar    1  UNL1        0.0032
      9 C           5.5301    0.0721    0.0000 C.ar    1  UNL1       -0.0132
     10 C           4.6641   -2.4279    0.0000 C.ar    1  UNL1        0.1466
     11 C           3.7702   -0.8933    0.0000 C.ar    1  UNL1        0.1348
     12 C           6.3961   -1.4279    0.0000 C.ar    1  UNL1        0.0314
     13 C           3.7702   -2.9626    0.0000 C.ar    1  UNL1        0.0231
     14 C           6.3961    0.5721    0.0000 C.ar    1  UNL1       -0.0088
     15 C           4.6641    0.5721    0.0000 C.ar    1  UNL1       -0.0503
     16 C           2.8641   -1.4071    0.0000 C.ar    1  UNL1        0.0224
     17 C           2.8641   -2.4487    0.0000 C.ar    1  UNL1        0.1239
     18 C           6.3961   -2.4279    0.0000 C.ar    1  UNL1        0.3378
     19 C           6.3961    1.5721    0.0000 C.ar    1  UNL1        0.1590
     20 C           4.6641    1.5721    0.0000 C.ar    1  UNL1       -0.0157
     21 C           5.5301    2.0721    0.0000 C.ar    1  UNL1        0.1613
     22 C           2.9215    0.6166    0.0000 C.3     1  UNL1        0.0788
     23 C           4.6641    3.5721    0.0000 C.3     1  UNL1        0.0790
     24 H           6.9331   -1.1179    0.0000 H       1  UNL1        0.0695
     25 H           3.7773   -3.5826    0.0000 H       1  UNL1        0.0691
     26 H           6.9331    0.2621    0.0000 H       1  UNL1        0.0661
     27 H           4.1272    0.2621    0.0000 H       1  UNL1        0.0625
     28 H           2.3284   -1.0950    0.0000 H       1  UNL1        0.0691
     29 H           4.1272    1.8821    0.0000 H       1  UNL1        0.0655
     30 H           3.2377    1.1500    0.0000 H       1  UNL1        0.0660
     31 H           2.3882    0.9328    0.0000 H       1  UNL1        0.0660
     32 H           2.6054    0.0833    0.0000 H       1  UNL1        0.0660
     33 H           2.0024   -3.5721    0.0000 H       1  UNL1        0.2921
     34 H           7.7991    1.7621    0.0000 H       1  UNL1        0.2923
     35 H           4.9741    4.1090    0.0000 H       1  UNL1        0.0660
     36 H           4.1272    3.8821    0.0000 H       1  UNL1        0.0660
     37 H           4.3541    3.0351    0.0000 H       1  UNL1        0.0660
@<TRIPOS>BOND
     1     1    10   ar
     2     1    18   ar
     3     2    11    1
     4     2    22    1
     5     3    21    1
     6     3    23    1
     7     4    17    1
     8     4    33    1
     9     5    19    1
    10     5    34    1
    11     6    18    2
    12     7     8   ar
    13     7    10   ar
    14     7    11   ar
    15     8     9    1
    16     8    12   ar
    17     9    14   ar
    18     9    15   ar
    19    10    13   ar
    20    11    16   ar
    21    12    18   ar
    22    12    24    1
    23    13    17   ar
    24    13    25    1
    25    14    19   ar
    26    14    26    1
    27    15    20   ar
    28    15    27    1
    29    16    17   ar
    30    16    28    1
    31    19    21   ar
    32    20    21   ar
    33    20    29    1
    34    22    30    1
    35    22    31    1
    36    22    32    1
    37    23    35    1
    38    23    36    1
    39    23    37    1
