@<TRIPOS>MOLECULE
IMPHY017685
 19 18 0 0 0
SMALL
GASTEIGER

@<TRIPOS>ATOM
      1 O           2.0000    0.2500    0.0000 O.co2   1  UNL1       -0.5818
      2 O           2.8660   -1.2500    0.0000 O.2     1  UNL1        0.0344
      3 N           2.8660   -0.2500    0.0000 N.pl3   1  UNL1        0.0379
      4 C           5.4641    0.2500    0.0000 C.3     1  UNL1       -0.0408
      5 C           4.5981   -0.2500    0.0000 C.3     1  UNL1        0.0146
      6 C           3.7320    0.2500    0.0000 C.3     1  UNL1        0.2079
      7 C           6.3301   -0.2500    0.0000 C.3     1  UNL1       -0.0625
      8 C           5.4641    1.2500    0.0000 C.3     1  UNL1       -0.0625
      9 H           5.4641   -0.3700    0.0000 H       1  UNL1        0.0298
     10 H           4.1996   -0.7249    0.0000 H       1  UNL1        0.0331
     11 H           4.9966   -0.7249    0.0000 H       1  UNL1        0.0331
     12 H           4.1306    0.7249    0.0000 H       1  UNL1        0.1087
     13 H           3.3335    0.7249    0.0000 H       1  UNL1        0.1087
     14 H           6.0201   -0.7869    0.0000 H       1  UNL1        0.0232
     15 H           6.8671   -0.5600    0.0000 H       1  UNL1        0.0232
     16 H           6.6401    0.2869    0.0000 H       1  UNL1        0.0232
     17 H           6.0841    1.2500    0.0000 H       1  UNL1        0.0232
     18 H           5.4641    1.8700    0.0000 H       1  UNL1        0.0232
     19 H           4.8441    1.2500    0.0000 H       1  UNL1        0.0232
@<TRIPOS>UNITY_ATOM_ATTR
1 1
charge -1
3 1
charge 1
@<TRIPOS>BOND
     1     1     3    1
     2     2     3    2
     3     3     6    1
     4     4     5    1
     5     4     7    1
     6     4     8    1
     7     4     9    1
     8     5     6    1
     9     5    10    1
    10     5    11    1
    11     6    12    1
    12     6    13    1
    13     7    14    1
    14     7    15    1
    15     7    16    1
    16     8    17    1
    17     8    18    1
    18     8    19    1
