@<TRIPOS>MOLECULE
IMPHY013472
 91 94 0 0 0
SMALL
GASTEIGER

@<TRIPOS>ATOM
      1 O           5.1350   -5.2500    0.0000 O.3     1  UNL1       -0.3313
      2 O          13.7953    5.7500    0.0000 O.3     1  UNL1       -0.3313
      3 O           3.4030   -7.2500    0.0000 O.3     1  UNL1       -0.3865
      4 O           5.1350   -8.2500    0.0000 O.3     1  UNL1       -0.3864
      5 O          14.6613    8.2500    0.0000 O.3     1  UNL1       -0.3865
      6 O          16.3933    7.2500    0.0000 O.3     1  UNL1       -0.3864
      7 O           6.8671   -5.2500    0.0000 O.3     1  UNL1       -0.4608
      8 O          14.6613    4.2500    0.0000 O.3     1  UNL1       -0.4608
      9 O           6.8671   -7.2500    0.0000 O.3     1  UNL1       -0.3829
     10 O          16.3933    5.2500    0.0000 O.3     1  UNL1       -0.3829
     11 O           2.5369   -5.7500    0.0000 O.3     1  UNL1       -0.3924
     12 O          12.9292    8.2500    0.0000 O.3     1  UNL1       -0.3924
     13 O           7.7331   -0.7500    0.0000 O.3     1  UNL1       -0.4579
     14 O          11.1972    1.2500    0.0000 O.3     1  UNL1       -0.4598
     15 O           9.0991   -0.1160    0.0000 O.3     1  UNL1       -0.3765
     16 O           6.8671    0.7500    0.0000 O.2     1  UNL1       -0.2475
     17 O          10.3312   -0.2500    0.0000 O.2     1  UNL1       -0.2507
     18 O           8.0991    3.3481    0.0000 O.3     1  UNL1       -0.4805
     19 O           9.5991    2.4820    0.0000 O.2     1  UNL1       -0.2509
     20 C           4.2690   -6.7500    0.0000 C.3     1  UNL1        0.1120
     21 C           5.1350   -7.2500    0.0000 C.3     1  UNL1        0.1152
     22 C          14.6613    7.2500    0.0000 C.3     1  UNL1        0.1120
     23 C          15.5273    6.7500    0.0000 C.3     1  UNL1        0.1152
     24 C           4.2690   -5.7500    0.0000 C.3     1  UNL1        0.1140
     25 C          13.7953    6.7500    0.0000 C.3     1  UNL1        0.1140
     26 C           6.0010   -6.7500    0.0000 C.3     1  UNL1        0.1454
     27 C          15.5273    5.7500    0.0000 C.3     1  UNL1        0.1454
     28 C           6.0010   -5.7500    0.0000 C.3     1  UNL1        0.2308
     29 C          14.6613    5.2500    0.0000 C.3     1  UNL1        0.2308
     30 C           3.4030   -5.2500    0.0000 C.3     1  UNL1        0.0731
     31 C          12.9292    7.2500    0.0000 C.3     1  UNL1        0.0731
     32 C           6.8671   -4.2500    0.0000 C.ar    1  UNL1        0.1240
     33 C          13.7953    3.7500    0.0000 C.ar    1  UNL1        0.1240
     34 C           7.7331   -3.7500    0.0000 C.ar    1  UNL1       -0.0195
     35 C           6.0010   -3.7500    0.0000 C.ar    1  UNL1       -0.0195
     36 C          13.7953    2.7500    0.0000 C.ar    1  UNL1       -0.0195
     37 C          12.9292    4.2500    0.0000 C.ar    1  UNL1       -0.0195
     38 C           6.8671   -2.2500    0.0000 C.ar    1  UNL1       -0.0101
     39 C           7.7331   -2.7500    0.0000 C.ar    1  UNL1       -0.0519
     40 C           6.0010   -2.7500    0.0000 C.ar    1  UNL1       -0.0519
     41 C          12.0632    2.7500    0.0000 C.ar    1  UNL1       -0.0101
     42 C          12.9292    2.2500    0.0000 C.ar    1  UNL1       -0.0519
     43 C          12.0632    3.7500    0.0000 C.ar    1  UNL1       -0.0519
     44 C           8.5991    0.7500    0.0000 C.3     1  UNL1        0.1821
     45 C           6.8671   -1.2500    0.0000 C.3     1  UNL1        0.1176
     46 C          11.1972    2.2500    0.0000 C.3     1  UNL1        0.1175
     47 C           9.4651    1.2500    0.0000 C.3     1  UNL1        0.0847
     48 C           8.0991    1.6160    0.0000 C.3     1  UNL1        0.0845
     49 C           7.7331    0.2500    0.0000 C.2     1  UNL1        0.3406
     50 C          10.3312    0.7500    0.0000 C.2     1  UNL1        0.3107
     51 C           8.5991    2.4820    0.0000 C.2     1  UNL1        0.3080
     52 H           4.2690   -7.3700    0.0000 H       1  UNL1        0.0647
     53 H           4.5981   -7.5600    0.0000 H       1  UNL1        0.0648
     54 H          14.1244    7.5600    0.0000 H       1  UNL1        0.0647
     55 H          15.5273    7.3700    0.0000 H       1  UNL1        0.0648
     56 H           4.2690   -5.1300    0.0000 H       1  UNL1        0.0647
     57 H          13.2583    6.4400    0.0000 H       1  UNL1        0.0647
     58 H           6.0010   -7.3700    0.0000 H       1  UNL1        0.0683
     59 H          15.5273    5.1300    0.0000 H       1  UNL1        0.0683
     60 H           6.0010   -5.1300    0.0000 H       1  UNL1        0.1084
     61 H          14.1244    4.9400    0.0000 H       1  UNL1        0.1084
     62 H           3.8015   -4.7750    0.0000 H       1  UNL1        0.0584
     63 H           3.0044   -4.7750    0.0000 H       1  UNL1        0.0584
     64 H          12.3187    7.3577    0.0000 H       1  UNL1        0.0584
     65 H          12.7172    6.6674    0.0000 H       1  UNL1        0.0584
     66 H           3.4030   -7.8700    0.0000 H       1  UNL1        0.2100
     67 H           5.6720   -8.5600    0.0000 H       1  UNL1        0.2100
     68 H          15.1982    8.5600    0.0000 H       1  UNL1        0.2100
     69 H          16.3933    7.8700    0.0000 H       1  UNL1        0.2100
     70 H           7.4040   -6.9400    0.0000 H       1  UNL1        0.2102
     71 H          16.9303    5.5600    0.0000 H       1  UNL1        0.2102
     72 H           2.0000   -5.4400    0.0000 H       1  UNL1        0.2095
     73 H          12.3923    8.5600    0.0000 H       1  UNL1        0.2095
     74 H           8.2700   -4.0600    0.0000 H       1  UNL1        0.0654
     75 H           5.4641   -4.0600    0.0000 H       1  UNL1        0.0654
     76 H          14.3322    2.4400    0.0000 H       1  UNL1        0.0654
     77 H          12.9292    4.8700    0.0000 H       1  UNL1        0.0654
     78 H           8.2700   -2.4400    0.0000 H       1  UNL1        0.0622
     79 H           5.4641   -2.4400    0.0000 H       1  UNL1        0.0622
     80 H          12.9292    1.6300    0.0000 H       1  UNL1        0.0622
     81 H          11.5263    4.0600    0.0000 H       1  UNL1        0.0622
     82 H           6.6550   -0.6674    0.0000 H       1  UNL1        0.0749
     83 H           6.2565   -1.3577    0.0000 H       1  UNL1        0.0749
     84 H           9.8637    1.7250    0.0000 H       1  UNL1        0.0412
     85 H           9.0666    1.7250    0.0000 H       1  UNL1        0.0412
     86 H          10.9851    2.8326    0.0000 H       1  UNL1        0.0749
     87 H          10.5866    2.1423    0.0000 H       1  UNL1        0.0749
     88 H           7.6242    2.0146    0.0000 H       1  UNL1        0.0412
     89 H           7.6242    1.2175    0.0000 H       1  UNL1        0.0412
     90 H           9.7191   -0.1160    0.0000 H       1  UNL1        0.2109
     91 H           8.4091    3.8850    0.0000 H       1  UNL1        0.2951
@<TRIPOS>BOND
     1     1    24    1
     2     1    28    1
     3     2    25    1
     4     2    29    1
     5    20     3    1
     6     3    66    1
     7    21     4    1
     8     4    67    1
     9    22     5    1
    10     5    68    1
    11    23     6    1
    12     6    69    1
    13    28     7    1
    14     7    32    1
    15    29     8    1
    16     8    33    1
    17    26     9    1
    18     9    70    1
    19    27    10    1
    20    10    71    1
    21    11    30    1
    22    11    72    1
    23    12    31    1
    24    12    73    1
    25    13    45    1
    26    13    49    1
    27    14    46    1
    28    14    50    1
    29    15    44    1
    30    15    90    1
    31    16    49    2
    32    17    50    2
    33    18    51    1
    34    18    91    1
    35    19    51    2
    36    20    21    1
    37    20    24    1
    38    20    52    1
    39    21    26    1
    40    21    53    1
    41    22    23    1
    42    22    25    1
    43    22    54    1
    44    23    27    1
    45    23    55    1
    46    24    30    1
    47    24    56    1
    48    25    31    1
    49    25    57    1
    50    26    28    1
    51    26    58    1
    52    27    29    1
    53    27    59    1
    54    28    60    1
    55    29    61    1
    56    30    62    1
    57    30    63    1
    58    31    64    1
    59    31    65    1
    60    32    34   ar
    61    32    35   ar
    62    33    36   ar
    63    33    37   ar
    64    34    39   ar
    65    34    74    1
    66    35    40   ar
    67    35    75    1
    68    36    42   ar
    69    36    76    1
    70    37    43   ar
    71    37    77    1
    72    38    39   ar
    73    38    40   ar
    74    38    45    1
    75    39    78    1
    76    40    79    1
    77    41    42   ar
    78    41    43   ar
    79    41    46    1
    80    42    80    1
    81    43    81    1
    82    44    47    1
    83    44    48    1
    84    44    49    1
    85    45    82    1
    86    45    83    1
    87    46    86    1
    88    46    87    1
    89    47    50    1
    90    47    84    1
    91    47    85    1
    92    48    51    1
    93    48    88    1
    94    48    89    1
