@<TRIPOS>MOLECULE
IMPHY005738
 56 60 0 0 0
SMALL
GASTEIGER

@<TRIPOS>ATOM
      1 O           5.4633    0.9165    0.0000 O.3     1  UNL1       -0.3455
      2 O           4.2947   -1.9492    0.0000 O.3     1  UNL1       -0.4589
      3 O           6.5427    1.9861    0.0000 O.3     1  UNL1       -0.3623
      4 O           5.1767    2.6201    0.0000 O.3     1  UNL1       -0.3862
      5 O           7.8271    1.2050    0.0000 O.3     1  UNL1       -0.3883
      6 O           2.5405    0.1232    0.0000 O.3     1  UNL1       -0.3803
      7 O           9.6618    0.2208    0.0000 O.3     1  UNL1       -0.3852
      8 O           2.5247   -1.9250    0.0000 O.2     1  UNL1       -0.2479
      9 C           5.1767   -0.3799    0.0000 C.3     1  UNL1        0.0455
     10 C           6.0427    0.1201    0.0000 C.3     1  UNL1        0.0354
     11 C           6.9525   -0.3679    0.0000 C.3     1  UNL1        0.0117
     12 C           4.3107    0.1201    0.0000 C.3     1  UNL1        0.0121
     13 C           6.0427    1.1201    0.0000 C.3     1  UNL1        0.1981
     14 C           5.1928   -1.4214    0.0000 C.3     1  UNL1        0.1122
     15 C           6.9768   -1.4000    0.0000 C.3     1  UNL1       -0.0084
     16 C           5.0633    0.2237    0.0000 C.3     1  UNL1        0.0608
     17 C           4.3107    1.1201    0.0000 C.3     1  UNL1       -0.0063
     18 C           5.1767    1.6201    0.0000 C.3     1  UNL1        0.1120
     19 C           6.0910   -1.9303    0.0000 C.3     1  UNL1       -0.0079
     20 C           7.8622    0.2056    0.0000 C.3     1  UNL1        0.0909
     21 C           3.4007   -0.3868    0.0000 C.3     1  UNL1        0.1554
     22 C           6.9290    0.6318    0.0000 C.3     1  UNL1       -0.0561
     23 C           7.9125   -1.9302    0.0000 C.2     1  UNL1       -0.0702
     24 C           8.8098   -0.3027    0.0000 C.3     1  UNL1        0.1000
     25 C           3.4446    1.6201    0.0000 C.3     1  UNL1       -0.0595
     26 C           3.3926   -1.4284    0.0000 C.2     1  UNL1        0.3366
     27 C           8.8351   -1.3778    0.0000 C.2     1  UNL1       -0.0542
     28 C           7.9244   -2.9301    0.0000 C.3     1  UNL1       -0.0434
     29 H           6.7721    0.5565    0.0000 H       1  UNL1        0.0367
     30 H           3.5778    0.5507    0.0000 H       1  UNL1        0.0342
     31 H           5.1995   -2.2714    0.0000 H       1  UNL1        0.0740
     32 H           6.9870   -2.2500    0.0000 H       1  UNL1        0.0353
     33 H           4.6362    0.6731    0.0000 H       1  UNL1        0.0568
     34 H           4.5113   -0.0587    0.0000 H       1  UNL1        0.0568
     35 H           4.3107    1.9701    0.0000 H       1  UNL1        0.0329
     36 H           5.9128    2.0451    0.0000 H       1  UNL1        0.0650
     37 H           5.6976   -2.4095    0.0000 H       1  UNL1        0.0307
     38 H           6.4958   -2.4000    0.0000 H       1  UNL1        0.0307
     39 H           8.5838    0.6548    0.0000 H       1  UNL1        0.0628
     40 H           2.6605   -0.8047    0.0000 H       1  UNL1        0.0713
     41 H           7.5488    0.6464    0.0000 H       1  UNL1        0.0236
     42 H           6.9144    1.2516    0.0000 H       1  UNL1        0.0236
     43 H           6.3091    0.6172    0.0000 H       1  UNL1        0.0236
     44 H           9.5565   -0.7088    0.0000 H       1  UNL1        0.0664
     45 H           3.7546    2.1570    0.0000 H       1  UNL1        0.0233
     46 H           2.9077    1.9301    0.0000 H       1  UNL1        0.0233
     47 H           3.1346    1.0831    0.0000 H       1  UNL1        0.0233
     48 H           6.2327    2.5230    0.0000 H       1  UNL1        0.2128
     49 H           9.3781   -1.6772    0.0000 H       1  UNL1        0.0598
     50 H           4.6398    2.9301    0.0000 H       1  UNL1        0.2100
     51 H           8.3528    1.5337    0.0000 H       1  UNL1        0.2099
     52 H           7.3045   -2.9375    0.0000 H       1  UNL1        0.0274
     53 H           7.9319   -3.5500    0.0000 H       1  UNL1        0.0274
     54 H           8.5444   -2.9226    0.0000 H       1  UNL1        0.0274
     55 H           2.0000   -0.1806    0.0000 H       1  UNL1        0.2105
     56 H          10.2071   -0.0743    0.0000 H       1  UNL1        0.2103
@<TRIPOS>BOND
     1     1    13    1
     2     1    16    1
     3     2    14    1
     4     2    26    1
     5     3    13    1
     6     3    48    1
     7     4    18    1
     8     4    50    1
     9     5    20    1
    10     5    51    1
    11     6    21    1
    12     6    55    1
    13     7    24    1
    14     7    56    1
    15     8    26    2
    16     9    10    1
    17     9    12    1
    18     9    14    1
    19     9    16    1
    20    10    11    1
    21    10    13    1
    22    10    29    1
    23    11    15    1
    24    11    20    1
    25    11    22    1
    26    12    17    1
    27    12    21    1
    28    12    30    1
    29    13    18    1
    30    14    19    1
    31    14    31    1
    32    15    19    1
    33    15    23    1
    34    15    32    1
    35    16    33    1
    36    16    34    1
    37    17    18    1
    38    17    25    1
    39    17    35    1
    40    18    36    1
    41    19    37    1
    42    19    38    1
    43    20    24    1
    44    20    39    1
    45    21    26    1
    46    21    40    1
    47    22    41    1
    48    22    42    1
    49    22    43    1
    50    23    27    2
    51    23    28    1
    52    24    27    1
    53    24    44    1
    54    25    45    1
    55    25    46    1
    56    25    47    1
    57    27    49    1
    58    28    52    1
    59    28    53    1
    60    28    54    1
