@<TRIPOS>MOLECULE
IMPHY000108
 30 30 0 0 0
SMALL
GASTEIGER

@<TRIPOS>ATOM
      1 C           4.5981    0.5000    0.0000 C.3     1  UNL1       -0.0041
      2 C           3.7320    0.0000    0.0000 C.3     1  UNL1        0.0064
      3 C           5.4641    0.0000    0.0000 C.3     1  UNL1       -0.0399
      4 C           5.4641   -1.0000    0.0000 C.3     1  UNL1       -0.0339
      5 C           4.0981    1.3660    0.0000 C.3     1  UNL1       -0.0553
      6 C           3.7320   -1.0000    0.0000 C.2     1  UNL1       -0.0800
      7 C           5.0981    1.3660    0.0000 C.2     1  UNL1       -0.0843
      8 C           2.8660    0.5000    0.0000 C.2     1  UNL1       -0.0721
      9 C           4.5981   -1.5000    0.0000 C.2     1  UNL1       -0.0873
     10 C           2.0000    0.0000    0.0000 C.3     1  UNL1       -0.0435
     11 C           6.0981    1.3660    0.0000 C.2     1  UNL1       -0.1021
     12 C           2.8660    1.5000    0.0000 C.2     1  UNL1       -0.0991
     13 H           3.7320    0.6200    0.0000 H       1  UNL1        0.0396
     14 H           6.0747   -0.1077    0.0000 H       1  UNL1        0.0277
     15 H           5.6762    0.5826    0.0000 H       1  UNL1        0.0277
     16 H           5.6762   -1.5826    0.0000 H       1  UNL1        0.0308
     17 H           6.0747   -0.8923    0.0000 H       1  UNL1        0.0308
     18 H           4.6350    1.6760    0.0000 H       1  UNL1        0.0238
     19 H           3.7881    1.9030    0.0000 H       1  UNL1        0.0238
     20 H           3.5611    1.0560    0.0000 H       1  UNL1        0.0238
     21 H           3.1951   -1.3100    0.0000 H       1  UNL1        0.0575
     22 H           4.7881    1.9030    0.0000 H       1  UNL1        0.0572
     23 H           4.5981   -2.1200    0.0000 H       1  UNL1        0.0569
     24 H           1.6900    0.5369    0.0000 H       1  UNL1        0.0274
     25 H           1.4631   -0.3100    0.0000 H       1  UNL1        0.0274
     26 H           2.3100   -0.5369    0.0000 H       1  UNL1        0.0274
     27 H           6.4081    0.8291    0.0000 H       1  UNL1        0.0532
     28 H           6.4081    1.9030    0.0000 H       1  UNL1        0.0532
     29 H           3.4030    1.8100    0.0000 H       1  UNL1        0.0534
     30 H           2.3291    1.8100    0.0000 H       1  UNL1        0.0534
@<TRIPOS>BOND
     1     1     2    1
     2     1     3    1
     3     1     5    1
     4     1     7    1
     5     2     6    1
     6     2     8    1
     7     2    13    1
     8     3     4    1
     9     3    14    1
    10     3    15    1
    11     4     9    1
    12     4    16    1
    13     4    17    1
    14     5    18    1
    15     5    19    1
    16     5    20    1
    17     6     9    2
    18     6    21    1
    19     7    11    2
    20     7    22    1
    21     8    10    1
    22     8    12    2
    23     9    23    1
    24    10    24    1
    25    10    25    1
    26    10    26    1
    27    11    27    1
    28    11    28    1
    29    12    29    1
    30    12    30    1
