@<TRIPOS>MOLECULE
IMPHY012925
 39 41 0 0 0
SMALL
GASTEIGER

@<TRIPOS>ATOM
      1 O           6.3981   -0.8246    0.0000 O.3     1  UNL1       -0.4828
      2 O           2.8680   -0.8488    0.0000 O.3     1  UNL1       -0.4913
      3 O           6.3981    2.1754    0.0000 O.2     1  UNL1       -0.2867
      4 O           4.6497   -1.8592    0.0000 O.3     1  UNL1       -0.5009
      5 O          11.5942   -0.8246    0.0000 O.3     1  UNL1       -0.4951
      6 C           7.2641    0.6754    0.0000 C.2     1  UNL1        0.0375
      7 C           5.5320    0.6754    0.0000 C.ar    1  UNL1        0.0675
      8 C           5.5320   -0.3246    0.0000 C.ar    1  UNL1        0.1766
      9 C           7.2641   -0.3246    0.0000 C.3     1  UNL1        0.1184
     10 C           6.3981    1.1754    0.0000 C.2     1  UNL1        0.1961
     11 C           4.6381   -0.8593    0.0000 C.ar    1  UNL1        0.2018
     12 C           8.1301    1.1754    0.0000 C.2     1  UNL1       -0.0445
     13 C           4.6381    1.2100    0.0000 C.ar    1  UNL1       -0.0437
     14 C           3.7320   -0.3454    0.0000 C.ar    1  UNL1        0.1650
     15 C           8.9962    0.6754    0.0000 C.ar    1  UNL1       -0.0243
     16 C           3.7320    0.6962    0.0000 C.ar    1  UNL1       -0.0154
     17 C           9.8622    1.1754    0.0000 C.ar    1  UNL1       -0.0511
     18 C           8.9962   -0.3246    0.0000 C.ar    1  UNL1       -0.0511
     19 C          10.7282    0.6754    0.0000 C.ar    1  UNL1       -0.0194
     20 C           9.8622   -0.8246    0.0000 C.ar    1  UNL1       -0.0194
     21 C          10.7282   -0.3246    0.0000 C.ar    1  UNL1        0.1201
     22 C           2.0000   -0.3521    0.0000 C.3     1  UNL1        0.0790
     23 C          12.4602   -0.3246    0.0000 C.3     1  UNL1        0.0788
     24 H           7.4762   -0.9072    0.0000 H       1  UNL1        0.0749
     25 H           7.8747   -0.2169    0.0000 H       1  UNL1        0.0749
     26 H           8.1301    1.7954    0.0000 H       1  UNL1        0.0628
     27 H           4.6453    1.8300    0.0000 H       1  UNL1        0.0627
     28 H           3.1963    1.0083    0.0000 H       1  UNL1        0.0655
     29 H           9.8622    1.7954    0.0000 H       1  UNL1        0.0625
     30 H           8.4592   -0.6346    0.0000 H       1  UNL1        0.0625
     31 H          11.2651    0.9854    0.0000 H       1  UNL1        0.0654
     32 H           9.8622   -1.4446    0.0000 H       1  UNL1        0.0654
     33 H           4.1164   -2.1754    0.0000 H       1  UNL1        0.2924
     34 H           2.3079    0.1860    0.0000 H       1  UNL1        0.0660
     35 H           1.4619   -0.0442    0.0000 H       1  UNL1        0.0660
     36 H           1.6921   -0.8902    0.0000 H       1  UNL1        0.0660
     37 H          12.7703   -0.8615    0.0000 H       1  UNL1        0.0660
     38 H          12.9972   -0.0146    0.0000 H       1  UNL1        0.0660
     39 H          12.1502    0.2123    0.0000 H       1  UNL1        0.0660
@<TRIPOS>BOND
     1     1     8    1
     2     1     9    1
     3     2    14    1
     4     2    22    1
     5     3    10    2
     6     4    11    1
     7     4    33    1
     8     5    21    1
     9     5    23    1
    10     6     9    1
    11     6    10    1
    12     6    12    2
    13     7     8   ar
    14     7    10    1
    15     7    13   ar
    16     8    11   ar
    17     9    24    1
    18     9    25    1
    19    11    14   ar
    20    12    15    1
    21    12    26    1
    22    13    16   ar
    23    13    27    1
    24    14    16   ar
    25    15    17   ar
    26    15    18   ar
    27    16    28    1
    28    17    19   ar
    29    17    29    1
    30    18    20   ar
    31    18    30    1
    32    19    21   ar
    33    19    31    1
    34    20    21   ar
    35    20    32    1
    36    22    34    1
    37    22    35    1
    38    22    36    1
    39    23    37    1
    40    23    38    1
    41    23    39    1
