@<TRIPOS>MOLECULE
IMPHY011479
 43 46 0 0 0
SMALL
GASTEIGER

@<TRIPOS>ATOM
      1 O          12.2367   -0.9261    0.0000 O.3     1  UNL1       -0.3650
      2 O           6.8639   -0.9317    0.0000 O.3     1  UNL1       -0.4608
      3 O           6.4156    0.7413    0.0000 O.2     1  UNL1       -0.2501
      4 O           3.9661   -1.7081    0.0000 O.3     1  UNL1       -0.3939
      5 N          10.3565    1.4410    0.0000 N.3     1  UNL1       -0.2942
      6 C          11.2514   -1.0996    0.0000 C.3     1  UNL1        0.1023
      7 C          11.5934   -0.1599    0.0000 C.3     1  UNL1        0.1023
      8 C           9.8787   -0.5075    0.0000 C.3     1  UNL1        0.0425
      9 C           9.6198    0.4584    0.0000 C.3     1  UNL1        0.0425
     10 C           8.6070   -1.3022    0.0000 C.3     1  UNL1        0.0025
     11 C           8.1882    0.2607    0.0000 C.3     1  UNL1        0.0025
     12 C           7.8298   -0.6729    0.0000 C.3     1  UNL1        0.1061
     13 C          10.8565    2.3070    0.0000 C.3     1  UNL1       -0.0120
     14 C           6.1568   -0.2246    0.0000 C.2     1  UNL1        0.3171
     15 C           5.1909   -0.4834    0.0000 C.3     1  UNL1        0.1044
     16 C           4.9321   -1.4493    0.0000 C.3     1  UNL1        0.0612
     17 C           4.4838    0.2237    0.0000 C.ar    1  UNL1       -0.0315
     18 C           3.5178   -0.0351    0.0000 C.ar    1  UNL1       -0.0577
     19 C           4.7426    1.1896    0.0000 C.ar    1  UNL1       -0.0577
     20 C           2.8107    0.6720    0.0000 C.ar    1  UNL1       -0.0615
     21 C           4.0355    1.8967    0.0000 C.ar    1  UNL1       -0.0615
     22 C           3.0696    1.6379    0.0000 C.ar    1  UNL1       -0.0617
     23 H          11.0393   -1.6822    0.0000 H       1  UNL1        0.0638
     24 H          11.8054    0.4227    0.0000 H       1  UNL1        0.0638
     25 H          10.0987   -1.3286    0.0000 H       1  UNL1        0.0490
     26 H           9.3998    1.2794    0.0000 H       1  UNL1        0.0490
     27 H           8.9915   -1.7885    0.0000 H       1  UNL1        0.0317
     28 H           8.1660   -1.7380    0.0000 H       1  UNL1        0.0317
     29 H           7.5804    0.3830    0.0000 H       1  UNL1        0.0317
     30 H           8.2072    0.8804    0.0000 H       1  UNL1        0.0317
     31 H           7.4150   -0.2121    0.0000 H       1  UNL1        0.0735
     32 H          10.3195    2.6170    0.0000 H       1  UNL1        0.0391
     33 H          11.1665    2.8440    0.0000 H       1  UNL1        0.0391
     34 H          11.3934    1.9970    0.0000 H       1  UNL1        0.0391
     35 H           5.6293   -0.9218    0.0000 H       1  UNL1        0.0485
     36 H           5.5497   -1.5034    0.0000 H       1  UNL1        0.0568
     37 H           4.9861   -2.0670    0.0000 H       1  UNL1        0.0568
     38 H           3.3574   -0.6340    0.0000 H       1  UNL1        0.0621
     39 H           5.3415    1.3501    0.0000 H       1  UNL1        0.0621
     40 H           3.8057   -2.3070    0.0000 H       1  UNL1        0.2094
     41 H           2.2119    0.5115    0.0000 H       1  UNL1        0.0618
     42 H           4.1960    2.4956    0.0000 H       1  UNL1        0.0618
     43 H           2.6312    2.0763    0.0000 H       1  UNL1        0.0618
@<TRIPOS>BOND
     1     6     1    1
     2     7     1    1
     3     2    12    1
     4     2    14    1
     5     3    14    2
     6     4    16    1
     7     4    40    1
     8     5     8    1
     9     5     9    1
    10     5    13    1
    11     6     7    1
    12     6     8    1
    13     6    23    1
    14     7     9    1
    15     7    24    1
    16     8    10    1
    17     8    25    1
    18     9    11    1
    19     9    26    1
    20    10    12    1
    21    10    27    1
    22    10    28    1
    23    11    12    1
    24    11    29    1
    25    11    30    1
    26    12    31    1
    27    13    32    1
    28    13    33    1
    29    13    34    1
    30    14    15    1
    31    15    16    1
    32    15    17    1
    33    15    35    1
    34    16    36    1
    35    16    37    1
    36    17    18   ar
    37    17    19   ar
    38    18    20   ar
    39    18    38    1
    40    19    21   ar
    41    19    39    1
    42    20    22   ar
    43    20    41    1
    44    21    22   ar
    45    21    42    1
    46    22    43    1
