@<TRIPOS>MOLECULE
IMPHY009506
 78 81 0 0 0
SMALL
GASTEIGER

@<TRIPOS>ATOM
      1 O          12.3639    0.7284    0.0000 O.3     1  UNL1       -0.3950
      2 C           6.5251   -0.6074    0.0000 C.3     1  UNL1       -0.0259
      3 C           6.5251   -1.6074    0.0000 C.3     1  UNL1       -0.0320
      4 C           5.6591   -2.1074    0.0000 C.3     1  UNL1       -0.0307
      5 C           4.7931   -1.6074    0.0000 C.3     1  UNL1       -0.0285
      6 C           7.4714   -0.3027    0.0000 C.3     1  UNL1       -0.0328
      7 C           5.6591   -0.1074    0.0000 C.3     1  UNL1       -0.0468
      8 C           7.4714   -1.9122    0.0000 C.3     1  UNL1       -0.0492
      9 C           3.8831   -2.1143    0.0000 C.3     1  UNL1       -0.0080
     10 C           4.7931   -0.6074    0.0000 C.3     1  UNL1       -0.0486
     11 C           8.0550   -1.1074    0.0000 C.3     1  UNL1       -0.0492
     12 C           5.6752   -3.1489    0.0000 C.3     1  UNL1       -0.0311
     13 C           7.7820    0.6478    0.0000 C.3     1  UNL1       -0.0405
     14 C           6.5251    0.3926    0.0000 C.3     1  UNL1       -0.0590
     15 C           3.8751   -3.1559    0.0000 C.2     1  UNL1       -0.0673
     16 C           2.9562   -1.5502    0.0000 C.3     1  UNL1       -0.0436
     17 C           4.7771   -3.6767    0.0000 C.2     1  UNL1       -0.0840
     18 C           3.8908   -1.1143    0.0000 C.3     1  UNL1       -0.0556
     19 C           2.9396   -3.7056    0.0000 C.3     1  UNL1       -0.0312
     20 C           8.7605    0.8540    0.0000 C.3     1  UNL1       -0.0497
     21 C           2.0084   -2.0781    0.0000 C.3     1  UNL1       -0.0520
     22 C           2.0000   -3.1631    0.0000 C.3     1  UNL1       -0.0493
     23 C           7.1142    1.3921    0.0000 C.3     1  UNL1       -0.0621
     24 C           9.0712    1.8046    0.0000 C.3     1  UNL1       -0.0462
     25 C          10.0497    2.0108    0.0000 C.3     1  UNL1       -0.0183
     26 C          10.7175    1.2665    0.0000 C.3     1  UNL1       -0.0232
     27 C          10.3604    2.9613    0.0000 C.2     1  UNL1       -0.0765
     28 C          11.6960    1.4727    0.0000 C.3     1  UNL1        0.0447
     29 C          11.3389    3.1675    0.0000 C.3     1  UNL1       -0.0438
     30 C           9.6925    3.7056    0.0000 C.2     1  UNL1       -0.0994
     31 H           6.6151   -2.4527    0.0000 H       1  UNL1        0.0309
     32 H           6.3985   -2.5267    0.0000 H       1  UNL1        0.0309
     33 H           5.5292   -1.1824    0.0000 H       1  UNL1        0.0312
     34 H           8.3111   -0.1708    0.0000 H       1  UNL1        0.0309
     35 H           6.0576    0.3675    0.0000 H       1  UNL1        0.0271
     36 H           5.2606    0.3675    0.0000 H       1  UNL1        0.0271
     37 H           7.2203   -2.4791    0.0000 H       1  UNL1        0.0268
     38 H           8.0087   -2.2214    0.0000 H       1  UNL1        0.0268
     39 H           4.5810   -0.0248    0.0000 H       1  UNL1        0.0268
     40 H           4.1825   -0.7151    0.0000 H       1  UNL1        0.0268
     41 H           8.5158   -1.5222    0.0000 H       1  UNL1        0.0268
     42 H           8.5158   -0.6927    0.0000 H       1  UNL1        0.0268
     43 H           5.8932   -3.7293    0.0000 H       1  UNL1        0.0310
     44 H           6.2843   -3.0334    0.0000 H       1  UNL1        0.0310
     45 H           7.9746    1.2371    0.0000 H       1  UNL1        0.0301
     46 H           7.1451    0.3926    0.0000 H       1  UNL1        0.0235
     47 H           6.5251    1.0126    0.0000 H       1  UNL1        0.0235
     48 H           5.9051    0.3926    0.0000 H       1  UNL1        0.0235
     49 H           3.3645   -1.0835    0.0000 H       1  UNL1        0.0274
     50 H           2.5663   -1.0682    0.0000 H       1  UNL1        0.0274
     51 H           4.7795   -4.2967    0.0000 H       1  UNL1        0.0572
     52 H           4.5108   -1.1191    0.0000 H       1  UNL1        0.0238
     53 H           3.8956   -0.4943    0.0000 H       1  UNL1        0.0238
     54 H           3.2708   -1.1095    0.0000 H       1  UNL1        0.0238
     55 H           2.5423   -4.1816    0.0000 H       1  UNL1        0.0310
     56 H           3.3406   -4.1785    0.0000 H       1  UNL1        0.0310
     57 H           8.7811    0.2344    0.0000 H       1  UNL1        0.0268
     58 H           9.3743    0.7667    0.0000 H       1  UNL1        0.0268
     59 H           1.8038   -1.4929    0.0000 H       1  UNL1        0.0266
     60 H           1.3967   -2.1795    0.0000 H       1  UNL1        0.0266
     61 H           1.3900   -3.0523    0.0000 H       1  UNL1        0.0268
     62 H           1.7864   -3.7452    0.0000 H       1  UNL1        0.0268
     63 H           7.5756    1.8062    0.0000 H       1  UNL1        0.0233
     64 H           6.7001    1.8536    0.0000 H       1  UNL1        0.0233
     65 H           6.6527    0.9781    0.0000 H       1  UNL1        0.0233
     66 H           9.0506    2.4242    0.0000 H       1  UNL1        0.0271
     67 H           8.4574    1.8919    0.0000 H       1  UNL1        0.0271
     68 H           9.8571    1.4215    0.0000 H       1  UNL1        0.0346
     69 H          10.1912    0.9388    0.0000 H       1  UNL1        0.0293
     70 H          10.9488    0.6912    0.0000 H       1  UNL1        0.0293
     71 H          12.2224    1.8003    0.0000 H       1  UNL1        0.0557
     72 H          11.4648    2.0480    0.0000 H       1  UNL1        0.0557
     73 H          11.4667    2.5608    0.0000 H       1  UNL1        0.0274
     74 H          11.9455    3.2954    0.0000 H       1  UNL1        0.0274
     75 H          11.2110    3.7742    0.0000 H       1  UNL1        0.0274
     76 H           9.8851    4.2949    0.0000 H       1  UNL1        0.0534
     77 H           9.0858    3.5778    0.0000 H       1  UNL1        0.0534
     78 H          12.9706    0.8563    0.0000 H       1  UNL1        0.2094
@<TRIPOS>BOND
     1     1    28    1
     2     1    78    1
     3     2     3    1
     4     2     6    1
     5     2     7    1
     6     2    14    1
     7     3     4    1
     8     3     8    1
     9     3    31    1
    10     4     5    1
    11     4    12    1
    12     4    32    1
    13     5     9    1
    14     5    10    1
    15     5    33    1
    16     6    11    1
    17     6    13    1
    18     6    34    1
    19     7    10    1
    20     7    35    1
    21     7    36    1
    22     8    11    1
    23     8    37    1
    24     8    38    1
    25     9    15    1
    26     9    16    1
    27     9    18    1
    28    10    39    1
    29    10    40    1
    30    11    41    1
    31    11    42    1
    32    12    17    1
    33    12    43    1
    34    12    44    1
    35    13    20    1
    36    13    23    1
    37    13    45    1
    38    14    46    1
    39    14    47    1
    40    14    48    1
    41    15    17    2
    42    15    19    1
    43    16    21    1
    44    16    49    1
    45    16    50    1
    46    17    51    1
    47    18    52    1
    48    18    53    1
    49    18    54    1
    50    19    22    1
    51    19    55    1
    52    19    56    1
    53    20    24    1
    54    20    57    1
    55    20    58    1
    56    21    22    1
    57    21    59    1
    58    21    60    1
    59    22    61    1
    60    22    62    1
    61    23    63    1
    62    23    64    1
    63    23    65    1
    64    24    25    1
    65    24    66    1
    66    24    67    1
    67    25    26    1
    68    25    27    1
    69    25    68    1
    70    26    28    1
    71    26    69    1
    72    26    70    1
    73    27    29    1
    74    27    30    2
    75    28    71    1
    76    28    72    1
    77    29    73    1
    78    29    74    1
    79    29    75    1
    80    30    76    1
    81    30    77    1
