@<TRIPOS>MOLECULE
IMPHY016332
 38 40 0 0 0
SMALL
GASTEIGER

@<TRIPOS>ATOM
      1 O           4.7716   -0.2506    0.0000 O.3     1  UNL1       -0.3643
      2 C           2.9239   -0.2506    0.0000 C.3     1  UNL1        0.0012
      3 C           3.8478   -0.6333    0.0000 C.3     1  UNL1        0.0965
      4 C           3.4817    0.6733    0.0000 C.3     1  UNL1       -0.0128
      5 C           2.5412    0.6733    0.0000 C.3     1  UNL1       -0.0441
      6 C           3.8478    1.9798    0.0000 C.3     1  UNL1       -0.0151
      7 C           2.9239    1.5972    0.0000 C.3     1  UNL1       -0.0458
      8 C           2.0878   -0.8719    0.0000 C.3     1  UNL1       -0.0412
      9 C           3.9996   -1.6638    0.0000 C.2     1  UNL1       -0.0446
     10 C           2.0000    0.1321    0.0000 C.3     1  UNL1       -0.0566
     11 C           2.2158   -1.9056    0.0000 C.3     1  UNL1       -0.0338
     12 C           4.7716    1.5972    0.0000 C.2     1  UNL1       -0.0481
     13 C           5.1543    0.6733    0.0000 C.3     1  UNL1        0.0699
     14 C           3.1782   -2.3042    0.0000 C.2     1  UNL1       -0.0823
     15 C           4.9279   -2.0358    0.0000 C.3     1  UNL1       -0.0411
     16 C           5.4788    2.3042    0.0000 C.2     1  UNL1       -0.0970
     17 H           2.9752    1.0308    0.0000 H       1  UNL1        0.0302
     18 H           4.1017    0.6733    0.0000 H       1  UNL1        0.0302
     19 H           2.0493    1.0507    0.0000 H       1  UNL1        0.0272
     20 H           2.0493    0.2958    0.0000 H       1  UNL1        0.0272
     21 H           3.8478    2.5998    0.0000 H       1  UNL1        0.0347
     22 H           2.8430    2.2118    0.0000 H       1  UNL1        0.0271
     23 H           2.3092    1.6781    0.0000 H       1  UNL1        0.0271
     24 H           1.8086   -0.3183    0.0000 H       1  UNL1        0.0274
     25 H           1.4946   -1.0522    0.0000 H       1  UNL1        0.0274
     26 H           2.2373    0.7049    0.0000 H       1  UNL1        0.0236
     27 H           1.4272    0.3693    0.0000 H       1  UNL1        0.0236
     28 H           1.7627   -0.4407    0.0000 H       1  UNL1        0.0236
     29 H           1.5966   -1.8754    0.0000 H       1  UNL1        0.0308
     30 H           2.0801   -2.5106    0.0000 H       1  UNL1        0.0308
     31 H           5.6462    0.2958    0.0000 H       1  UNL1        0.0607
     32 H           5.6462    1.0507    0.0000 H       1  UNL1        0.0607
     33 H           3.2614   -2.9186    0.0000 H       1  UNL1        0.0572
     34 H           4.6972   -2.6113    0.0000 H       1  UNL1        0.0275
     35 H           5.5034   -2.2664    0.0000 H       1  UNL1        0.0275
     36 H           5.1585   -1.4603    0.0000 H       1  UNL1        0.0275
     37 H           6.0776    2.1438    0.0000 H       1  UNL1        0.0535
     38 H           5.3183    2.9031    0.0000 H       1  UNL1        0.0535
@<TRIPOS>BOND
     1     1     3    1
     2     1    13    1
     3     2     3    1
     4     2     5    1
     5     2     8    1
     6     2    10    1
     7     3     4    1
     8     3     9    1
     9     4     6    1
    10     4    17    1
    11     4    18    1
    12     5     7    1
    13     5    19    1
    14     5    20    1
    15     6     7    1
    16     6    12    1
    17     6    21    1
    18     7    22    1
    19     7    23    1
    20     8    11    1
    21     8    24    1
    22     8    25    1
    23     9    14    2
    24     9    15    1
    25    10    26    1
    26    10    27    1
    27    10    28    1
    28    11    14    1
    29    11    29    1
    30    11    30    1
    31    12    13    1
    32    12    16    2
    33    13    31    1
    34    13    32    1
    35    14    33    1
    36    15    34    1
    37    15    35    1
    38    15    36    1
    39    16    37    1
    40    16    38    1
