@<TRIPOS>MOLECULE
IMPHY005142
 36 37 0 0 0
SMALL
GASTEIGER

@<TRIPOS>ATOM
      1 O           7.2764   -1.5547    0.0000 O.3     1  UNL1       -0.4526
      2 O           7.2764    0.0547    0.0000 O.3     1  UNL1       -0.4525
      3 O           3.7320    0.2500    0.0000 O.3     1  UNL1       -0.4876
      4 C           4.5981   -1.2500    0.0000 C.ar    1  UNL1        0.0017
      5 C           4.5981   -0.2500    0.0000 C.ar    1  UNL1        0.1281
      6 C           6.3301   -1.2500    0.0000 C.ar    1  UNL1        0.1667
      7 C           6.3301   -0.2500    0.0000 C.ar    1  UNL1        0.1697
      8 C           5.4641   -1.7500    0.0000 C.ar    1  UNL1       -0.0092
      9 C           5.4641    0.2500    0.0000 C.ar    1  UNL1        0.0259
     10 C           3.7320   -1.7500    0.0000 C.3     1  UNL1       -0.0062
     11 C           7.8600   -0.7500    0.0000 C.3     1  UNL1        0.2332
     12 C           3.7320    1.2500    0.0000 C.3     1  UNL1        0.1081
     13 C           3.7320   -2.7500    0.0000 C.2     1  UNL1       -0.0867
     14 C           2.8660    1.7500    0.0000 C.2     1  UNL1       -0.0484
     15 C           2.8660    2.7500    0.0000 C.2     1  UNL1       -0.0765
     16 C           2.0000    3.2500    0.0000 C.3     1  UNL1       -0.0439
     17 C           3.7320    3.2500    0.0000 C.3     1  UNL1       -0.0439
     18 C           2.8660   -3.2500    0.0000 C.2     1  UNL1       -0.1023
     19 H           5.4641   -2.3700    0.0000 H       1  UNL1        0.0659
     20 H           5.4641    0.8700    0.0000 H       1  UNL1        0.0692
     21 H           3.5200   -1.1674    0.0000 H       1  UNL1        0.0357
     22 H           3.1215   -1.8577    0.0000 H       1  UNL1        0.0357
     23 H           8.3208   -1.1647    0.0000 H       1  UNL1        0.1166
     24 H           8.3208   -0.3353    0.0000 H       1  UNL1        0.1166
     25 H           4.3426    1.1423    0.0000 H       1  UNL1        0.0742
     26 H           3.9441    1.8326    0.0000 H       1  UNL1        0.0742
     27 H           4.2690   -3.0600    0.0000 H       1  UNL1        0.0570
     28 H           2.3291    1.4400    0.0000 H       1  UNL1        0.0605
     29 H           4.0420    2.7131    0.0000 H       1  UNL1        0.0274
     30 H           4.2690    3.5600    0.0000 H       1  UNL1        0.0274
     31 H           3.4220    3.7869    0.0000 H       1  UNL1        0.0274
     32 H           2.3100    3.7869    0.0000 H       1  UNL1        0.0274
     33 H           1.4631    3.5600    0.0000 H       1  UNL1        0.0274
     34 H           1.6900    2.7131    0.0000 H       1  UNL1        0.0274
     35 H           2.3291   -2.9400    0.0000 H       1  UNL1        0.0532
     36 H           2.8660   -3.8700    0.0000 H       1  UNL1        0.0532
@<TRIPOS>BOND
     1     1     6    1
     2     1    11    1
     3     2     7    1
     4     2    11    1
     5     3     5    1
     6     3    12    1
     7     4     5   ar
     8     4     8   ar
     9     4    10    1
    10     5     9   ar
    11     6     7   ar
    12     6     8   ar
    13     7     9   ar
    14     8    19    1
    15     9    20    1
    16    10    13    1
    17    10    21    1
    18    10    22    1
    19    11    23    1
    20    11    24    1
    21    12    14    1
    22    12    25    1
    23    12    26    1
    24    13    18    2
    25    13    27    1
    26    14    15    2
    27    14    28    1
    28    15    16    1
    29    15    17    1
    30    16    32    1
    31    16    33    1
    32    16    34    1
    33    17    29    1
    34    17    30    1
    35    17    31    1
    36    18    35    1
    37    18    36    1
