@<TRIPOS>MOLECULE
IMPHY015536
 25 27 0 0 0
SMALL
GASTEIGER

@<TRIPOS>ATOM
      1 O           6.8802   -1.6617    0.0000 O.2     1  UNL1       -0.2971
      2 C           3.2666    0.0608    0.0000 C.3     1  UNL1       -0.0343
      3 C           3.6086   -0.8789    0.0000 C.3     1  UNL1       -0.0284
      4 C           5.2401    0.6791    0.0000 C.3     1  UNL1       -0.0306
      5 C           4.9813   -0.2868    0.0000 C.3     1  UNL1        0.0209
      6 C           4.5035    1.6617    0.0000 C.3     1  UNL1       -0.0398
      7 C           2.2732    0.0236    0.0000 C.3     1  UNL1       -0.0497
      8 C           2.8237   -1.4888    0.0000 C.3     1  UNL1       -0.0493
      9 C           6.6390    0.1703    0.0000 C.3     1  UNL1        0.0092
     10 C           2.0000   -0.9323    0.0000 C.3     1  UNL1       -0.0525
     11 C           6.3802   -0.7957    0.0000 C.2     1  UNL1        0.1370
     12 H           3.1613    0.6718    0.0000 H       1  UNL1        0.0306
     13 H           3.8993   -1.6776    0.0000 H       1  UNL1        0.0310
     14 H           5.6095    1.1770    0.0000 H       1  UNL1        0.0308
     15 H           5.4428    0.1272    0.0000 H       1  UNL1        0.0380
     16 H           4.8213    2.1940    0.0000 H       1  UNL1        0.0275
     17 H           3.8904    1.7536    0.0000 H       1  UNL1        0.0275
     18 H           2.3152    0.6421    0.0000 H       1  UNL1        0.0268
     19 H           1.6624    0.1303    0.0000 H       1  UNL1        0.0268
     20 H           2.4244   -1.9632    0.0000 H       1  UNL1        0.0268
     21 H           3.2534   -1.9357    0.0000 H       1  UNL1        0.0268
     22 H           7.2330   -0.0075    0.0000 H       1  UNL1        0.0344
     23 H           6.8340    0.7588    0.0000 H       1  UNL1        0.0344
     24 H           1.4251   -0.7002    0.0000 H       1  UNL1        0.0265
     25 H           1.7088   -1.4796    0.0000 H       1  UNL1        0.0265
@<TRIPOS>BOND
     1     1    11    2
     2     2     3    1
     3     2     4    1
     4     2     7    1
     5     2    12    1
     6     3     5    1
     7     3     8    1
     8     3    13    1
     9     4     6    1
    10     4     9    1
    11     4    14    1
    12     5     6    1
    13     5    11    1
    14     5    15    1
    15     6    16    1
    16     6    17    1
    17     7    10    1
    18     7    18    1
    19     7    19    1
    20     8    10    1
    21     8    20    1
    22     8    21    1
    23     9    11    1
    24     9    22    1
    25     9    23    1
    26    10    24    1
    27    10    25    1
