@<TRIPOS>MOLECULE
IMPHY009834
 35 35 0 0 0
SMALL
GASTEIGER

@<TRIPOS>ATOM
      1 O           3.9680   -0.6013    0.0000 O.3     1  UNL1       -0.3625
      2 O           6.6791   -0.6316    0.0000 O.3     1  UNL1       -0.4562
      3 O           7.2144    1.0157    0.0000 O.2     1  UNL1       -0.2511
      4 C           4.7770   -0.0135    0.0000 C.3     1  UNL1        0.0990
      5 C           3.1590   -0.0135    0.0000 C.3     1  UNL1        0.0852
      6 C           4.4680    0.9375    0.0000 C.3     1  UNL1       -0.0199
      7 C           3.4680    0.9375    0.0000 C.3     1  UNL1       -0.0179
      8 C           5.7281   -0.3226    0.0000 C.3     1  UNL1        0.1338
      9 C           2.5712   -0.8226    0.0000 C.3     1  UNL1       -0.0322
     10 C           6.0371    0.6285    0.0000 C.3     1  UNL1       -0.0226
     11 C           5.4190   -1.2736    0.0000 C.3     1  UNL1       -0.0226
     12 C           2.2079    0.2955    0.0000 C.2     1  UNL1       -0.0600
     13 C           2.0000    1.2736    0.0000 C.2     1  UNL1       -0.1000
     14 C           7.4223    0.0376    0.0000 C.2     1  UNL1        0.3045
     15 C           8.3733   -0.2715    0.0000 C.3     1  UNL1        0.0333
     16 H           4.9100   -0.8531    0.0000 H       1  UNL1        0.0636
     17 H           5.0744    1.0664    0.0000 H       1  UNL1        0.0292
     18 H           4.4032    1.5541    0.0000 H       1  UNL1        0.0292
     19 H           3.5328    1.5541    0.0000 H       1  UNL1        0.0297
     20 H           2.8615    1.0664    0.0000 H       1  UNL1        0.0297
     21 H           2.0696   -0.4581    0.0000 H       1  UNL1        0.0260
     22 H           2.2068   -1.3242    0.0000 H       1  UNL1        0.0260
     23 H           3.0728   -1.1870    0.0000 H       1  UNL1        0.0260
     24 H           4.8294   -1.0820    0.0000 H       1  UNL1        0.0269
     25 H           6.6267    0.4369    0.0000 H       1  UNL1        0.0269
     26 H           5.2274   -1.8633    0.0000 H       1  UNL1        0.0269
     27 H           6.0087   -1.4652    0.0000 H       1  UNL1        0.0269
     28 H           6.2287    1.2182    0.0000 H       1  UNL1        0.0269
     29 H           5.4474    0.8201    0.0000 H       1  UNL1        0.0269
     30 H           1.7472   -0.1194    0.0000 H       1  UNL1        0.0594
     31 H           2.4608    1.6885    0.0000 H       1  UNL1        0.0533
     32 H           1.4103    1.4652    0.0000 H       1  UNL1        0.0533
     33 H           8.1817   -0.8611    0.0000 H       1  UNL1        0.0342
     34 H           8.9630   -0.4631    0.0000 H       1  UNL1        0.0342
     35 H           8.5649    0.3182    0.0000 H       1  UNL1        0.0342
@<TRIPOS>BOND
     1     1     4    1
     2     1     5    1
     3     2     8    1
     4     2    14    1
     5     3    14    2
     6     4     6    1
     7     4     8    1
     8     4    16    1
     9     5     7    1
    10     5     9    1
    11     5    12    1
    12     6     7    1
    13     6    17    1
    14     6    18    1
    15     7    19    1
    16     7    20    1
    17     8    10    1
    18     8    11    1
    19     9    21    1
    20     9    22    1
    21     9    23    1
    22    10    25    1
    23    10    28    1
    24    10    29    1
    25    11    24    1
    26    11    26    1
    27    11    27    1
    28    12    13    2
    29    12    30    1
    30    13    31    1
    31    13    32    1
    32    14    15    1
    33    15    33    1
    34    15    34    1
    35    15    35    1
