@<TRIPOS>MOLECULE
IMPHY010684
 43 49 0 0 0
SMALL
GASTEIGER

@<TRIPOS>ATOM
      1 O           8.3631   -0.5407    0.0000 O.3     1  UNL1       -0.2192
      2 O           8.8043    0.2974    0.0000 O.3     1  UNL1       -0.2228
      3 O           6.6712   -0.9269    0.0000 O.3     1  UNL1       -0.3509
      4 O           5.4641    2.8904    0.0000 O.3     1  UNL1       -0.2231
      5 O           9.1810    2.4645    0.0000 O.3     1  UNL1       -0.3534
      6 O           9.5818    3.3483    0.0000 O.3     1  UNL1       -0.3534
      7 O           4.5981   -1.3448    0.0000 O.3     1  UNL1       -0.4454
      8 O           5.4641   -2.8448    0.0000 O.2     1  UNL1       -0.2448
      9 N           4.2688    1.0613    0.0000 N.3     1  UNL1       -0.2715
     10 N           2.8660   -1.3448    0.0000 N.pl3   1  UNL1       -0.3568
     11 C           6.2154    1.4566    0.0000 C.3     1  UNL1        0.0467
     12 C           6.2154    0.5890    0.0000 C.3     1  UNL1        0.0383
     13 C           5.2135    1.3505    0.0000 C.3     1  UNL1        0.0928
     14 C           6.8937    1.9975    0.0000 C.3     1  UNL1        0.0087
     15 C           7.7396    0.2411    0.0000 C.3     1  UNL1        0.1900
     16 C           7.7396    1.8044    0.0000 C.3     1  UNL1        0.0580
     17 C           8.1160    1.0228    0.0000 C.3     1  UNL1        0.1601
     18 C           6.8937    0.0481    0.0000 C.3     1  UNL1        0.1469
     19 C           5.4641    0.1552    0.0000 C.3     1  UNL1        0.0577
     20 C           5.4641    1.8904    0.0000 C.3     1  UNL1        0.1533
     21 C           6.8160    2.8616    0.0000 C.3     1  UNL1        0.0051
     22 C           7.6137    3.2026    0.0000 C.3     1  UNL1        0.0546
     23 C           8.1845    2.5492    0.0000 C.3     1  UNL1        0.1200
     24 C           8.7609    1.2927    0.0000 C.3     1  UNL1        0.0627
     25 C           4.2688    0.3094    0.0000 C.3     1  UNL1        0.0757
     26 C           4.7128    0.5890    0.0000 C.3     1  UNL1        0.0076
     27 C           8.7609    2.7772    0.0000 C.3     1  UNL1        0.1201
     28 C           4.7128    1.4566    0.0000 C.3     1  UNL1        0.0331
     29 C           5.4641   -0.8448    0.0000 C.3     1  UNL1        0.2100
     30 C           3.4648    1.6560    0.0000 C.3     1  UNL1        0.0722
     31 C           7.4043   -1.6070    0.0000 C.3     1  UNL1        0.1741
     32 C           2.5478    1.2571    0.0000 C.3     1  UNL1        0.0188
     33 C           9.6058    1.5593    0.0000 C.3     1  UNL1        0.1740
     34 C           9.4976    4.3448    0.0000 C.3     1  UNL1        0.1740
     35 C           4.5981   -2.3448    0.0000 C.2     1  UNL1        0.3424
     36 C           3.7321   -2.8448    0.0000 C.ar    1  UNL1        0.0885
     37 C           2.8660   -2.3448    0.0000 C.ar    1  UNL1        0.0478
     38 C           3.7321   -3.8448    0.0000 C.ar    1  UNL1        0.0077
     39 C           2.0000   -2.8448    0.0000 C.ar    1  UNL1        0.0143
     40 C           2.8660   -4.3448    0.0000 C.ar    1  UNL1        0.0003
     41 C           2.0000   -3.8448    0.0000 C.ar    1  UNL1        0.0013
     42 H           2.3291   -1.0348    0.0000 H       1  UNL1        0.1424
     43 H           3.4030   -1.0348    0.0000 H       1  UNL1        0.1424
@<TRIPOS>BOND
     1     1    15    1
     2     3    18    1
     3     3    31    1
     4     5    23    1
     5     5    33    1
     6     6    34    1
     7     7    29    1
     8     7    35    1
     9     8    35    2
    10     9    13    1
    11     9    25    1
    12     9    30    1
    13    10    37    1
    14    10    42    1
    15    10    43    1
    16    11    12    1
    17    11    13    1
    18    11    14    1
    19    11    20    1
    20    12    18    1
    21    12    19    1
    22    13    15    1
    23    14    16    1
    24    14    21    1
    25    15    17    1
    26    15    18    1
    27    16    17    1
    28    16    23    1
    29    17     2    1
    30    17    24    1
    31    19    25    1
    32    19    26    1
    33    19    29    1
    34    20     4    1
    35    20    28    1
    36    21    22    1
    37    22    23    1
    38    22    27    1
    39    24    27    1
    40    26    28    1
    41    27     6    1
    42    30    32    1
    43    35    36    1
    44    36    37   ar
    45    36    38   ar
    46    37    39   ar
    47    38    40   ar
    48    39    41   ar
    49    40    41   ar
