@<TRIPOS>MOLECULE
IMPHY004753
 70 74 0 0 0
SMALL
GASTEIGER

@<TRIPOS>ATOM
      1 O           5.1350   -3.5256    0.0000 O.3     1  UNL1       -0.3221
      2 O          12.9705    4.0202    0.0000 O.3     1  UNL1       -0.3221
      3 O           6.8671   -3.5256    0.0000 O.3     1  UNL1       -0.4606
      4 O           5.1350   -6.5256    0.0000 O.3     1  UNL1       -0.3863
      5 O          12.0987    2.5236    0.0000 O.3     1  UNL1       -0.4608
      6 O          10.3782    5.5302    0.0000 O.3     1  UNL1       -0.3863
      7 O           3.4030   -5.5256    0.0000 O.3     1  UNL1       -0.3860
      8 O           6.8671   -5.5256    0.0000 O.3     1  UNL1       -0.3829
      9 O          12.1141    6.5235    0.0000 O.3     1  UNL1       -0.3860
     10 O          10.3705    3.5302    0.0000 O.3     1  UNL1       -0.3829
     11 O           2.5369   -4.0256    0.0000 O.3     1  UNL1       -0.4788
     12 O          14.7064    5.0135    0.0000 O.3     1  UNL1       -0.4788
     13 O           3.4030   -2.5256    0.0000 O.2     1  UNL1       -0.2480
     14 O          13.8461    6.5168    0.0000 O.2     1  UNL1       -0.2480
     15 O           8.6230   -0.4631    0.0000 O.2     1  UNL1       -0.4544
     16 O           5.1208   -0.4464    0.0000 O.3     1  UNL1       -0.5058
     17 O           6.0308    1.0469    0.0000 O.2     1  UNL1       -0.2869
     18 C           5.1350   -5.5256    0.0000 C.3     1  UNL1        0.1157
     19 C          11.2423    5.0269    0.0000 C.3     1  UNL1        0.1157
     20 C           4.2690   -5.0256    0.0000 C.3     1  UNL1        0.1202
     21 C           6.0010   -5.0256    0.0000 C.3     1  UNL1        0.1455
     22 C          12.1102    5.5235    0.0000 C.3     1  UNL1        0.1202
     23 C          11.2384    4.0269    0.0000 C.3     1  UNL1        0.1455
     24 C           4.2690   -4.0256    0.0000 C.3     1  UNL1        0.1869
     25 C           6.0010   -4.0256    0.0000 C.3     1  UNL1        0.2312
     26 C          12.9743    5.0202    0.0000 C.3     1  UNL1        0.1869
     27 C          12.1025    3.5235    0.0000 C.3     1  UNL1        0.2312
     28 C           3.4030   -3.5256    0.0000 C.2     1  UNL1        0.3367
     29 C          13.8423    5.5168    0.0000 C.2     1  UNL1        0.3367
     30 C           6.8671   -2.5256    0.0000 C.ar    1  UNL1        0.1310
     31 C          11.2307    2.0269    0.0000 C.ar    1  UNL1        0.1240
     32 C           7.7671   -2.0013    0.0000 C.ar    1  UNL1        0.0235
     33 C           5.9670   -2.0013    0.0000 C.ar    1  UNL1        0.0226
     34 C           7.7551   -0.9597    0.0000 C.ar    1  UNL1        0.1462
     35 C          10.3666    2.5302    0.0000 C.ar    1  UNL1       -0.0192
     36 C          11.2269    1.0269    0.0000 C.ar    1  UNL1       -0.0192
     37 C           6.8910   -0.4564    0.0000 C.ar    1  UNL1        0.1055
     38 C           9.4948    1.0336    0.0000 C.ar    1  UNL1        0.0176
     39 C           5.9790   -0.9597    0.0000 C.ar    1  UNL1        0.1347
     40 C           8.6269    0.5369    0.0000 C.ar    1  UNL1        0.1392
     41 C           9.4987    2.0336    0.0000 C.ar    1  UNL1       -0.0476
     42 C          10.3589    0.5302    0.0000 C.ar    1  UNL1       -0.0476
     43 C           6.8948    0.5436    0.0000 C.ar    1  UNL1        0.1966
     44 C           7.7628    1.0402    0.0000 C.ar    1  UNL1        0.0288
     45 H           5.6720   -5.8356    0.0000 H       1  UNL1        0.0648
     46 H          10.7042    4.7189    0.0000 H       1  UNL1        0.0648
     47 H           4.2690   -5.6456    0.0000 H       1  UNL1        0.0652
     48 H           6.5380   -4.7156    0.0000 H       1  UNL1        0.0683
     49 H          11.5745    5.8356    0.0000 H       1  UNL1        0.0652
     50 H          11.7766    4.3348    0.0000 H       1  UNL1        0.0683
     51 H           4.2690   -3.4056    0.0000 H       1  UNL1        0.0742
     52 H           6.0010   -3.4056    0.0000 H       1  UNL1        0.1084
     53 H          13.5101    4.7081    0.0000 H       1  UNL1        0.0742
     54 H          11.5644    3.2156    0.0000 H       1  UNL1        0.1084
     55 H           5.6720   -6.8356    0.0000 H       1  UNL1        0.2100
     56 H           9.8401    5.2223    0.0000 H       1  UNL1        0.2100
     57 H           3.4030   -6.1456    0.0000 H       1  UNL1        0.2100
     58 H           7.4040   -5.2156    0.0000 H       1  UNL1        0.2102
     59 H          11.5783    6.8356    0.0000 H       1  UNL1        0.2100
     60 H           9.8348    3.8423    0.0000 H       1  UNL1        0.2102
     61 H           8.3064   -2.3072    0.0000 H       1  UNL1        0.0691
     62 H           5.4277   -2.3072    0.0000 H       1  UNL1        0.0691
     63 H          10.3690    3.1502    0.0000 H       1  UNL1        0.0654
     64 H          11.7626    0.7148    0.0000 H       1  UNL1        0.0654
     65 H           2.0000   -3.7156    0.0000 H       1  UNL1        0.2951
     66 H          15.2445    5.3214    0.0000 H       1  UNL1        0.2951
     67 H           8.9630    2.3456    0.0000 H       1  UNL1        0.0626
     68 H          10.3565   -0.0898    0.0000 H       1  UNL1        0.0626
     69 H           7.7652    1.6602    0.0000 H       1  UNL1        0.0693
     70 H           4.5792   -0.7481    0.0000 H       1  UNL1        0.2922
@<TRIPOS>BOND
     1     1    24    1
     2     1    25    1
     3     2    26    1
     4     2    27    1
     5    25     3    1
     6     3    30    1
     7     4    18    1
     8     4    55    1
     9    27     5    1
    10     5    31    1
    11     6    19    1
    12     6    56    1
    13    20     7    1
    14     7    57    1
    15     8    21    1
    16     8    58    1
    17    22     9    1
    18     9    59    1
    19    10    23    1
    20    10    60    1
    21    11    28    1
    22    11    65    1
    23    12    29    1
    24    12    66    1
    25    13    28    2
    26    14    29    2
    27    15    34   ar
    28    15    40   ar
    29    16    39    1
    30    16    70    1
    31    17    43    2
    32    18    20    1
    33    18    21    1
    34    18    45    1
    35    19    22    1
    36    19    23    1
    37    19    46    1
    38    20    24    1
    39    20    47    1
    40    21    25    1
    41    21    48    1
    42    22    26    1
    43    22    49    1
    44    23    27    1
    45    23    50    1
    46    24    28    1
    47    24    51    1
    48    25    52    1
    49    26    29    1
    50    26    53    1
    51    27    54    1
    52    30    32   ar
    53    30    33   ar
    54    31    35   ar
    55    31    36   ar
    56    32    34   ar
    57    32    61    1
    58    33    39   ar
    59    33    62    1
    60    34    37   ar
    61    35    41   ar
    62    35    63    1
    63    36    42   ar
    64    36    64    1
    65    37    39   ar
    66    37    43   ar
    67    38    40    1
    68    38    41   ar
    69    38    42   ar
    70    40    44   ar
    71    41    67    1
    72    42    68    1
    73    43    44   ar
    74    44    69    1
