@<TRIPOS>MOLECULE
IMPHY008730
 17 18 0 0 0
SMALL
GASTEIGER

@<TRIPOS>ATOM
      1 C        2503.8200 2419.5500    0.0000 C.2     1  UNL1        0.3838
      2 O        2469.0800 2399.5000    0.0000 O.co2   1  UNL1       -0.2409
      3 O        2538.4600 2399.5000    0.0000 O.co2   1  UNL1       -0.2409
      4 C        2503.8200 2459.5500    0.0000 C.2     1  UNL1        0.0572
      5 C        2535.0900 2484.5700    0.0000 C.3     1  UNL1        0.0291
      6 C        2535.0900 2524.5700    0.0000 C.3     1  UNL1        0.0083
      7 C        2503.8200 2549.5800    0.0000 C.3     1  UNL1        0.0223
      8 C        2464.9100 2540.5500    0.0000 C.2     1  UNL1       -0.0445
      9 C        2447.5400 2504.5200    0.0000 C.2     1  UNL1       -0.0086
     10 C        2464.9100 2468.4900    0.0000 C.2     1  UNL1        0.0016
     11 C        2430.2700 2560.5000    0.0000 C.3     1  UNL1        0.0183
     12 C        2395.6300 2540.5500    0.0000 C.3     1  UNL1        0.0043
     13 C        2430.2700 2600.5000    0.0000 C.3     1  UNL1        0.0043
     14 C        2569.7300 2544.5200    0.0000 C.3     1  UNL1        0.0006
     15 C        2604.3700 2524.5700    0.0000 C.3     1  UNL1        0.0004
     16 C        2604.3700 2484.5700    0.0000 C.3     1  UNL1        0.0046
     17 C        2569.7300 2584.5200    0.0000 C.3     1  UNL1        0.0000
@<TRIPOS>BOND
     1     1     2   ar
     2     1     3   ar
     3     1     4    1
     4     4    10    2
     5     5     4    1
     6     5     6    1
     7     5    16    1
     8     6     7    1
     9     6    14    1
    10     7     8    1
    11     8    11    1
    12     9     8    2
    13    10     9    1
    14    11    12    1
    15    11    13    1
    16    14    15    1
    17    14    17    1
    18    16    15    1
