@<TRIPOS>MOLECULE
IMPHY009941
 36 38 0 0 0
SMALL
GASTEIGER

@<TRIPOS>ATOM
      1 O           2.8641    0.2485    0.0000 O.3     1  UNL1       -0.3689
      2 O           5.5301    1.7277    0.0000 O.2     1  UNL1       -0.2867
      3 O           5.5301   -2.2723    0.0000 O.2     1  UNL1       -0.2870
      4 O           7.2785    1.7623    0.0000 O.3     1  UNL1       -0.4944
      5 C           3.7702   -1.3070    0.0000 C.3     1  UNL1        0.0026
      6 C           2.8641   -0.7931    0.0000 C.3     1  UNL1        0.0608
      7 C           3.7702    0.7624    0.0000 C.3     1  UNL1        0.0851
      8 C           4.6641   -0.7723    0.0000 C.2     1  UNL1        0.0116
      9 C           4.6641    0.2277    0.0000 C.2     1  UNL1        0.0351
     10 C           5.5301    0.7277    0.0000 C.2     1  UNL1        0.1962
     11 C           5.5301   -1.2723    0.0000 C.2     1  UNL1        0.1905
     12 C           6.3961    0.2277    0.0000 C.ar    1  UNL1        0.0744
     13 C           6.3961   -0.7723    0.0000 C.ar    1  UNL1        0.0363
     14 C           2.0000   -1.2964    0.0000 C.3     1  UNL1       -0.0384
     15 C           3.7817    1.7623    0.0000 C.3     1  UNL1       -0.0344
     16 C           7.2901    0.7624    0.0000 C.ar    1  UNL1        0.1316
     17 C           7.2901   -1.3070    0.0000 C.ar    1  UNL1       -0.0500
     18 C           8.1962    0.2485    0.0000 C.ar    1  UNL1       -0.0192
     19 C           8.1962   -0.7931    0.0000 C.ar    1  UNL1       -0.0576
     20 C           8.1387    2.2723    0.0000 C.3     1  UNL1        0.0788
     21 H           3.3765   -1.7860    0.0000 H       1  UNL1        0.0339
     22 H           4.1748   -1.7767    0.0000 H       1  UNL1        0.0339
     23 H           2.3266   -0.4841    0.0000 H       1  UNL1        0.0597
     24 H           3.2362    1.0775    0.0000 H       1  UNL1        0.0645
     25 H           1.6879   -0.7607    0.0000 H       1  UNL1        0.0255
     26 H           1.4643   -1.6085    0.0000 H       1  UNL1        0.0255
     27 H           2.3121   -1.8322    0.0000 H       1  UNL1        0.0255
     28 H           4.4017    1.7551    0.0000 H       1  UNL1        0.0258
     29 H           3.7889    2.3823    0.0000 H       1  UNL1        0.0258
     30 H           3.1618    1.7695    0.0000 H       1  UNL1        0.0258
     31 H           7.2829   -1.9269    0.0000 H       1  UNL1        0.0625
     32 H           8.7319    0.5606    0.0000 H       1  UNL1        0.0654
     33 H           8.7319   -1.1052    0.0000 H       1  UNL1        0.0619
     34 H           8.4549    1.7390    0.0000 H       1  UNL1        0.0660
     35 H           8.6720    2.5885    0.0000 H       1  UNL1        0.0660
     36 H           7.8225    2.8056    0.0000 H       1  UNL1        0.0660
@<TRIPOS>BOND
     1     1     6    1
     2     1     7    1
     3     2    10    2
     4     3    11    2
     5     4    16    1
     6     4    20    1
     7     5     6    1
     8     5     8    1
     9     5    21    1
    10     5    22    1
    11     6    14    1
    12     6    23    1
    13     7     9    1
    14     7    15    1
    15     7    24    1
    16     8     9    2
    17     8    11    1
    18     9    10    1
    19    10    12    1
    20    11    13    1
    21    12    13   ar
    22    12    16   ar
    23    13    17   ar
    24    14    25    1
    25    14    26    1
    26    14    27    1
    27    15    28    1
    28    15    29    1
    29    15    30    1
    30    16    18   ar
    31    17    19   ar
    32    17    31    1
    33    18    19   ar
    34    18    32    1
    35    19    33    1
    36    20    34    1
    37    20    35    1
    38    20    36    1
