@<TRIPOS>MOLECULE
IMPHY013213
 55 55 0 0 0
SMALL
GASTEIGER

@<TRIPOS>ATOM
      1 S           6.3301   -1.8450    0.0000 S.3     1  UNL1       -0.0728
      2 S           2.8660    4.1550    0.0000 S.O     1  UNL1        0.0190
      3 S           8.0622    1.1550    0.0000 S.O2    1  UNL1        0.2709
      4 O           4.5981   -1.8450    0.0000 O.3     1  UNL1       -0.3549
      5 O           4.5981   -4.8450    0.0000 O.3     1  UNL1       -0.3865
      6 O           2.8660   -3.8450    0.0000 O.3     1  UNL1       -0.3865
      7 O           6.3301   -3.8450    0.0000 O.3     1  UNL1       -0.3857
      8 O           2.8660   -0.8450    0.0000 O.3     1  UNL1       -0.3924
      9 O           7.1962    0.6550    0.0000 O.2     1  UNL1       -0.2068
     10 O           2.0000    3.6550    0.0000 O.2     1  UNL1       -0.2575
     11 O           8.9282    1.6550    0.0000 O.3     1  UNL1       -0.2209
     12 O           7.5622    2.0210    0.0000 O.2     1  UNL1       -0.1060
     13 O           8.5622    0.2890    0.0000 O.2     1  UNL1       -0.1060
     14 N           7.1962   -0.3450    0.0000 N.2     1  UNL1       -0.0483
     15 C           4.5981   -3.8450    0.0000 C.3     1  UNL1        0.1126
     16 C           3.7320   -3.3450    0.0000 C.3     1  UNL1        0.1118
     17 C           5.4641   -3.3450    0.0000 C.3     1  UNL1        0.1192
     18 C           3.7320   -2.3450    0.0000 C.3     1  UNL1        0.1115
     19 C           5.4641   -2.3450    0.0000 C.3     1  UNL1        0.1384
     20 C           2.8660   -1.8450    0.0000 C.3     1  UNL1        0.0730
     21 C           5.4641   -0.3450    0.0000 C.3     1  UNL1       -0.0009
     22 C           6.3301   -0.8450    0.0000 C.2     1  UNL1        0.1182
     23 C           5.4641    0.6550    0.0000 C.3     1  UNL1       -0.0470
     24 C           4.5981    1.1550    0.0000 C.3     1  UNL1       -0.0527
     25 C           4.5981    2.1550    0.0000 C.3     1  UNL1       -0.0522
     26 C           3.7320    2.6550    0.0000 C.3     1  UNL1       -0.0417
     27 C           3.7320    3.6550    0.0000 C.3     1  UNL1        0.0231
     28 C           2.8660    5.1550    0.0000 C.3     1  UNL1        0.0117
     29 H           4.0611   -4.1550    0.0000 H       1  UNL1        0.0647
     30 H           3.7320   -3.9650    0.0000 H       1  UNL1        0.0647
     31 H           5.4641   -3.9650    0.0000 H       1  UNL1        0.0655
     32 H           3.7320   -1.7250    0.0000 H       1  UNL1        0.0646
     33 H           5.4641   -1.7250    0.0000 H       1  UNL1        0.0743
     34 H           2.2554   -1.7373    0.0000 H       1  UNL1        0.0584
     35 H           2.6540   -2.4276    0.0000 H       1  UNL1        0.0584
     36 H           4.0611   -5.1550    0.0000 H       1  UNL1        0.2100
     37 H           2.3291   -3.5350    0.0000 H       1  UNL1        0.2100
     38 H           6.8671   -3.5350    0.0000 H       1  UNL1        0.2100
     39 H           4.8535   -0.2373    0.0000 H       1  UNL1        0.0334
     40 H           5.2520   -0.9276    0.0000 H       1  UNL1        0.0334
     41 H           6.0747    0.5473    0.0000 H       1  UNL1        0.0269
     42 H           5.6762    1.2376    0.0000 H       1  UNL1        0.0269
     43 H           3.9875    1.2627    0.0000 H       1  UNL1        0.0265
     44 H           4.3860    0.5724    0.0000 H       1  UNL1        0.0265
     45 H           5.2087    2.0473    0.0000 H       1  UNL1        0.0266
     46 H           4.8101    2.7376    0.0000 H       1  UNL1        0.0266
     47 H           3.1215    2.7627    0.0000 H       1  UNL1        0.0274
     48 H           3.5200    2.0724    0.0000 H       1  UNL1        0.0274
     49 H           2.3291   -0.5350    0.0000 H       1  UNL1        0.2095
     50 H           4.3426    3.5473    0.0000 H       1  UNL1        0.0401
     51 H           3.9441    4.2376    0.0000 H       1  UNL1        0.0401
     52 H           3.4860    5.1550    0.0000 H       1  UNL1        0.0365
     53 H           2.8660    5.7750    0.0000 H       1  UNL1        0.0365
     54 H           2.2460    5.1550    0.0000 H       1  UNL1        0.0365
     55 H           8.9282    2.2750    0.0000 H       1  UNL1        0.2480
@<TRIPOS>BOND
     1     1    19    1
     2     1    22    1
     3     2    10    2
     4     2    27    1
     5     2    28    1
     6     3     9    1
     7     3    11    1
     8     3    12    2
     9     3    13    2
    10     4    18    1
    11     4    19    1
    12     5    15    1
    13     5    36    1
    14     6    16    1
    15     6    37    1
    16     7    17    1
    17     7    38    1
    18     8    20    1
    19     8    49    1
    20     9    14    1
    21    11    55    1
    22    14    22    2
    23    15    16    1
    24    15    17    1
    25    15    29    1
    26    16    18    1
    27    16    30    1
    28    17    19    1
    29    17    31    1
    30    18    20    1
    31    18    32    1
    32    19    33    1
    33    20    34    1
    34    20    35    1
    35    21    22    1
    36    21    23    1
    37    21    39    1
    38    21    40    1
    39    23    24    1
    40    23    41    1
    41    23    42    1
    42    24    25    1
    43    24    43    1
    44    24    44    1
    45    25    26    1
    46    25    45    1
    47    25    46    1
    48    26    27    1
    49    26    47    1
    50    26    48    1
    51    27    50    1
    52    27    51    1
    53    28    52    1
    54    28    53    1
    55    28    54    1
