@<TRIPOS>MOLECULE
IMPHY001348
 41 45 0 0 0
SMALL
GASTEIGER

@<TRIPOS>ATOM
      1 O           2.2314    0.0528    0.0000 O.3     1  UNL1       -0.4811
      2 O           7.1166   -1.2445    0.0000 O.co2   1  UNL1       -0.7753
      3 O           2.0000   -2.4021    0.0000 O.3     1  UNL1       -0.3841
      4 O           2.0000    2.4021    0.0000 O.3     1  UNL1       -0.5033
      5 N           6.1607   -0.9511    0.0000 N.3     1  UNL1        0.2178
      6 C           3.6897   -0.4755    0.0000 C.3     1  UNL1        0.0553
      7 C           4.5133   -0.9511    0.0000 C.3     1  UNL1        0.0338
      8 C           5.3370   -0.4755    0.0000 C.3     1  UNL1       -0.0105
      9 C           2.8660   -0.9511    0.0000 C.3     1  UNL1        0.1402
     10 C           4.2392    0.2219    0.0000 C.3     1  UNL1        0.0014
     11 C           3.6897    0.4755    0.0000 C.ar    1  UNL1        0.0120
     12 C           5.5918    0.2219    0.0000 C.3     1  UNL1       -0.0317
     13 C           5.3370    0.4755    0.0000 C.3     1  UNL1        0.0164
     14 C           4.5133    0.9511    0.0000 C.ar    1  UNL1       -0.0345
     15 C           2.8660   -1.9022    0.0000 C.3     1  UNL1        0.1110
     16 C           4.5133   -1.9022    0.0000 C.2     1  UNL1       -0.0761
     17 C           2.8660    0.9511    0.0000 C.ar    1  UNL1        0.1663
     18 C           3.6897   -2.3777    0.0000 C.2     1  UNL1       -0.0558
     19 C           6.3845   -1.9257    0.0000 C.3     1  UNL1       -0.0436
     20 C           4.5133    1.9022    0.0000 C.ar    1  UNL1       -0.0544
     21 C           2.8660    1.9022    0.0000 C.ar    1  UNL1        0.1588
     22 C           3.6897    2.3777    0.0000 C.ar    1  UNL1       -0.0162
     23 H           5.0597   -1.6022    0.0000 H       1  UNL1        0.0408
     24 H           5.6284   -1.2740    0.0000 H       1  UNL1        0.0859
     25 H           2.0496   -1.1875    0.0000 H       1  UNL1        0.0772
     26 H           4.3760    0.8266    0.0000 H       1  UNL1        0.0327
     27 H           3.6795    0.4887    0.0000 H       1  UNL1        0.0327
     28 H           6.1840    0.4057    0.0000 H       1  UNL1        0.0814
     29 H           5.4989    0.8349    0.0000 H       1  UNL1        0.0814
     30 H           5.9476    0.3679    0.0000 H       1  UNL1        0.0368
     31 H           5.5490    1.0581    0.0000 H       1  UNL1        0.0368
     32 H           2.8660   -2.5222    0.0000 H       1  UNL1        0.0675
     33 H           5.0503   -2.2122    0.0000 H       1  UNL1        0.0575
     34 H           3.6897   -2.9977    0.0000 H       1  UNL1        0.0596
     35 H           5.7802   -2.0645    0.0000 H       1  UNL1        0.0777
     36 H           6.5233   -2.5300    0.0000 H       1  UNL1        0.0777
     37 H           6.9888   -1.7869    0.0000 H       1  UNL1        0.0777
     38 H           5.0503    2.2122    0.0000 H       1  UNL1        0.0622
     39 H           3.6897    2.9977    0.0000 H       1  UNL1        0.0655
     40 H           2.0000   -3.0222    0.0000 H       1  UNL1        0.2104
     41 H           2.0000    3.0222    0.0000 H       1  UNL1        0.2923
@<TRIPOS>UNITY_ATOM_ATTR
2 1
charge -1
5 1
charge 1
@<TRIPOS>BOND
     1     1     9    1
     2     1    17    1
     3     2     5    1
     4    15     3    1
     5     3    40    1
     6     4    21    1
     7     4    41    1
     8     5     8    1
     9     5    12    1
    10     5    19    1
    11     6     7    1
    12     6     9    1
    13     6    10    1
    14     6    11    1
    15     7     8    1
    16     7    16    1
    17     7    23    1
    18     8    13    1
    19     8    24    1
    20     9    15    1
    21     9    25    1
    22    10    12    1
    23    10    26    1
    24    10    27    1
    25    11    14   ar
    26    11    17   ar
    27    12    28    1
    28    12    29    1
    29    13    14    1
    30    13    30    1
    31    13    31    1
    32    14    20   ar
    33    15    18    1
    34    15    32    1
    35    16    18    2
    36    16    33    1
    37    17    21   ar
    38    18    34    1
    39    19    35    1
    40    19    36    1
    41    19    37    1
    42    20    22   ar
    43    20    38    1
    44    21    22   ar
    45    22    39    1
