@<TRIPOS>MOLECULE
IMPHY012183
 44 47 0 0 0
SMALL
GASTEIGER

@<TRIPOS>ATOM
      1 O           5.5301    1.2500    0.0000 O.3     1  UNL1       -0.5054
      2 O           8.1282   -1.2500    0.0000 O.3     1  UNL1       -0.5054
      3 O           3.7817    1.2846    0.0000 O.3     1  UNL1       -0.5060
      4 O           9.8766   -1.2846    0.0000 O.3     1  UNL1       -0.5060
      5 C           6.3961   -0.2500    0.0000 C.ar    1  UNL1        0.0278
      6 C           7.2622    0.2500    0.0000 C.ar    1  UNL1        0.0278
      7 C           4.6641   -0.2500    0.0000 C.ar    1  UNL1        0.0655
      8 C           8.9942    0.2500    0.0000 C.ar    1  UNL1        0.0655
      9 C           4.6641   -1.2500    0.0000 C.ar    1  UNL1       -0.0106
     10 C           8.9942    1.2500    0.0000 C.ar    1  UNL1       -0.0106
     11 C           5.5301    0.2500    0.0000 C.ar    1  UNL1        0.1358
     12 C           8.1282   -0.2500    0.0000 C.ar    1  UNL1        0.1358
     13 C           6.3961   -1.2500    0.0000 C.ar    1  UNL1       -0.0498
     14 C           7.2622    1.2500    0.0000 C.ar    1  UNL1       -0.0498
     15 C           5.5301   -1.7500    0.0000 C.ar    1  UNL1       -0.0531
     16 C           8.1282    1.7500    0.0000 C.ar    1  UNL1       -0.0531
     17 C           3.7702    0.2847    0.0000 C.ar    1  UNL1        0.1283
     18 C           9.8882   -0.2847    0.0000 C.ar    1  UNL1        0.1283
     19 C           3.7702   -1.7847    0.0000 C.ar    1  UNL1       -0.0508
     20 C           9.8882    1.7847    0.0000 C.ar    1  UNL1       -0.0508
     21 C           2.8641   -1.2708    0.0000 C.ar    1  UNL1       -0.0464
     22 C          10.7942    1.2708    0.0000 C.ar    1  UNL1       -0.0464
     23 C           2.8641   -0.2292    0.0000 C.ar    1  UNL1       -0.0165
     24 C          10.7942    0.2292    0.0000 C.ar    1  UNL1       -0.0165
     25 C           2.0000   -1.7742    0.0000 C.3     1  UNL1       -0.0396
     26 C          11.6583    1.7742    0.0000 C.3     1  UNL1       -0.0396
     27 H           6.9331   -1.5600    0.0000 H       1  UNL1        0.0625
     28 H           6.7252    1.5600    0.0000 H       1  UNL1        0.0625
     29 H           5.5301   -2.3700    0.0000 H       1  UNL1        0.0624
     30 H           8.1282    2.3700    0.0000 H       1  UNL1        0.0624
     31 H           3.7773   -2.4046    0.0000 H       1  UNL1        0.0626
     32 H           9.8810    2.4046    0.0000 H       1  UNL1        0.0626
     33 H           2.3284    0.0829    0.0000 H       1  UNL1        0.0657
     34 H          11.3300   -0.0829    0.0000 H       1  UNL1        0.0657
     35 H           1.6879   -1.2384    0.0000 H       1  UNL1        0.0278
     36 H           1.4643   -2.0862    0.0000 H       1  UNL1        0.0278
     37 H           2.3121   -2.3099    0.0000 H       1  UNL1        0.0278
     38 H          11.9704    1.2384    0.0000 H       1  UNL1        0.0278
     39 H          12.1941    2.0862    0.0000 H       1  UNL1        0.0278
     40 H          11.3463    2.3099    0.0000 H       1  UNL1        0.0278
     41 H           4.9932    1.5600    0.0000 H       1  UNL1        0.2922
     42 H           8.6651   -1.5600    0.0000 H       1  UNL1        0.2922
     43 H           3.2484    1.6008    0.0000 H       1  UNL1        0.2922
     44 H          10.4099   -1.6008    0.0000 H       1  UNL1        0.2922
@<TRIPOS>BOND
     1     1    11    1
     2     1    41    1
     3     2    12    1
     4     2    42    1
     5     3    17    1
     6     3    43    1
     7     4    18    1
     8     4    44    1
     9     5     6    1
    10     5    11   ar
    11     5    13   ar
    12     6    12   ar
    13     6    14   ar
    14     7     9   ar
    15     7    11   ar
    16     7    17   ar
    17     8    10   ar
    18     8    12   ar
    19     8    18   ar
    20     9    15   ar
    21     9    19   ar
    22    10    16   ar
    23    10    20   ar
    24    13    15   ar
    25    13    27    1
    26    14    16   ar
    27    14    28    1
    28    15    29    1
    29    16    30    1
    30    17    23   ar
    31    18    24   ar
    32    19    21   ar
    33    19    31    1
    34    20    22   ar
    35    20    32    1
    36    21    23   ar
    37    21    25    1
    38    22    24   ar
    39    22    26    1
    40    23    33    1
    41    24    34    1
    42    25    35    1
    43    25    36    1
    44    25    37    1
    45    26    38    1
    46    26    39    1
    47    26    40    1
