@<TRIPOS>MOLECULE
IMPHY010729
 15 17 0 0 0
SMALL
GASTEIGER

@<TRIPOS>ATOM
      1 FE          1.1793   -0.8898    0.0000 Fe      1  UNL1        0.0000
      2 C           0.0000   -1.5747    0.0000 C.2     1  UNL1        0.0000
      3 C           0.0000   -2.9165    0.0000 C.2     1  UNL1        0.0000
      4 C           1.1793   -3.6014    0.0000 C.2     1  UNL1        0.0000
      5 C           2.3515   -2.9235    0.0000 C.2     1  UNL1        0.0000
      6 O           3.5238   -3.6085    0.0000 O.3     1  UNL1        0.0000
      7 C           4.7030   -2.9306    0.0000 C.ar    1  UNL1        0.0000
      8 C           5.8823   -3.6014    0.0000 C.ar    1  UNL1        0.0000
      9 C           7.0616   -2.9165    0.0000 C.ar    1  UNL1        0.0000
     10 C           7.0546   -1.5677    0.0000 C.ar    1  UNL1        0.0000
     11 C           5.8753   -0.8827    0.0000 C.ar    1  UNL1        0.0000
     12 C           4.7030   -1.5747    0.0000 C.ar    1  UNL1        0.0000
     13 C           3.5238   -0.8898    0.0000 C.3     1  UNL1        0.0000
     14 C           2.3515   -1.5747    0.0000 C.2     1  UNL1        0.0000
     15 O           1.1440    0.0000    0.0000 O.2     1  UNL1        0.0000
@<TRIPOS>BOND
     1     1     2    1
     2     1    14    2
     3     1    15    2
     4     2     3    2
     5     3     4    1
     6     4     5    2
     7     5     6    1
     8     5    14    1
     9     6     7    1
    10     7     8   ar
    11     7    12   ar
    12     8     9   ar
    13     9    10   ar
    14    10    11   ar
    15    11    12   ar
    16    12    13    1
    17    13    14    1
