@<TRIPOS>MOLECULE
IMPHY010381
 53 56 0 0 0
SMALL
GASTEIGER

@<TRIPOS>ATOM
      1 O           9.0382    0.8385    0.0000 O.3     1  UNL1       -0.4804
      2 O           8.7716    2.5499    0.0000 O.2     1  UNL1       -0.2507
      3 O           2.0000   -2.3547    0.0000 O.2     1  UNL1       -0.3004
      4 C           6.2038    0.1363    0.0000 C.3     1  UNL1       -0.0249
      5 C           5.3352    0.6319    0.0000 C.3     1  UNL1       -0.0297
      6 C           4.4278    0.1206    0.0000 C.3     1  UNL1       -0.0250
      7 C           4.4250   -0.9211    0.0000 C.3     1  UNL1       -0.0235
      8 C           6.1793    1.3176    0.0000 C.3     1  UNL1       -0.0435
      9 C           6.8554    2.2867    0.0000 C.3     1  UNL1       -0.0276
     10 C           7.1328    0.5062    0.0000 C.3     1  UNL1       -0.0339
     11 C           6.2250   -0.9052    0.0000 C.3     1  UNL1       -0.0468
     12 C           5.1813    1.6200    0.0000 C.3     1  UNL1       -0.0489
     13 C           7.4228    1.4633    0.0000 C.3     1  UNL1        0.0596
     14 C           5.3296   -1.4374    0.0000 C.3     1  UNL1       -0.0483
     15 C           5.8578    2.3564    0.0000 C.3     1  UNL1       -0.0492
     16 C           3.4923   -1.4755    0.0000 C.3     1  UNL1        0.0265
     17 C           3.4982    0.6800    0.0000 C.3     1  UNL1       -0.0470
     18 C           4.0883    1.0612    0.0000 C.3     1  UNL1       -0.0590
     19 C           2.5500   -0.9377    0.0000 C.3     1  UNL1       -0.0409
     20 C           2.5529    0.1473    0.0000 C.3     1  UNL1       -0.0517
     21 C           3.9999   -2.3370    0.0000 C.3     1  UNL1       -0.0528
     22 C           8.4109    1.6172    0.0000 C.2     1  UNL1        0.3081
     23 C           3.0000   -2.3459    0.0000 C.2     1  UNL1        0.1264
     24 H           4.5970    1.0532    0.0000 H       1  UNL1        0.0311
     25 H           4.4325   -1.7710    0.0000 H       1  UNL1        0.0315
     26 H           5.8050    1.8119    0.0000 H       1  UNL1        0.0274
     27 H           5.5936    1.1141    0.0000 H       1  UNL1        0.0274
     28 H           7.1018    3.1002    0.0000 H       1  UNL1        0.0309
     29 H           6.4459   -1.4845    0.0000 H       1  UNL1        0.0271
     30 H           6.8336   -0.7866    0.0000 H       1  UNL1        0.0271
     31 H           7.2283   -0.1064    0.0000 H       1  UNL1        0.0279
     32 H           7.7513    0.4630    0.0000 H       1  UNL1        0.0279
     33 H           4.8295    2.1305    0.0000 H       1  UNL1        0.0268
     34 H           4.6053    1.3906    0.0000 H       1  UNL1        0.0268
     35 H           7.8295    0.9953    0.0000 H       1  UNL1        0.0416
     36 H           4.9347   -1.9153    0.0000 H       1  UNL1        0.0269
     37 H           5.7329   -1.9083    0.0000 H       1  UNL1        0.0269
     38 H           6.0376    2.9498    0.0000 H       1  UNL1        0.0268
     39 H           5.3193    2.6638    0.0000 H       1  UNL1        0.0268
     40 H           3.9040    1.1487    0.0000 H       1  UNL1        0.0271
     41 H           3.1058    1.1601    0.0000 H       1  UNL1        0.0271
     42 H           4.6715    1.2716    0.0000 H       1  UNL1        0.0235
     43 H           3.8779    1.6444    0.0000 H       1  UNL1        0.0235
     44 H           3.5052    0.8507    0.0000 H       1  UNL1        0.0235
     45 H           1.9394   -0.8299    0.0000 H       1  UNL1        0.0275
     46 H           2.3393   -1.5208    0.0000 H       1  UNL1        0.0275
     47 H           2.3454    0.7316    0.0000 H       1  UNL1        0.0266
     48 H           1.9418    0.0429    0.0000 H       1  UNL1        0.0266
     49 H           3.4658   -2.6518    0.0000 H       1  UNL1        0.0239
     50 H           4.3147   -2.8712    0.0000 H       1  UNL1        0.0239
     51 H           4.5341   -2.0223    0.0000 H       1  UNL1        0.0239
     52 H           3.3147   -2.8800    0.0000 H       1  UNL1        0.1032
     53 H           9.6508    0.9340    0.0000 H       1  UNL1        0.2951
@<TRIPOS>BOND
     1     1    22    1
     2     1    53    1
     3     2    22    2
     4     3    23    2
     5     4     5    1
     6     4     8    1
     7     4    10    1
     8     4    11    1
     9     5     6    1
    10     5    12    1
    11     5    24    1
    12     6     7    1
    13     6    17    1
    14     6    18    1
    15     7    14    1
    16     7    16    1
    17     7    25    1
    18     8     9    1
    19     8    26    1
    20     8    27    1
    21     9    13    1
    22     9    15    1
    23     9    28    1
    24    10    13    1
    25    10    31    1
    26    10    32    1
    27    11    14    1
    28    11    29    1
    29    11    30    1
    30    12    15    1
    31    12    33    1
    32    12    34    1
    33    13    22    1
    34    13    35    1
    35    14    36    1
    36    14    37    1
    37    15    38    1
    38    15    39    1
    39    16    19    1
    40    16    21    1
    41    16    23    1
    42    17    20    1
    43    17    40    1
    44    17    41    1
    45    18    42    1
    46    18    43    1
    47    18    44    1
    48    19    20    1
    49    19    45    1
    50    19    46    1
    51    20    47    1
    52    20    48    1
    53    21    49    1
    54    21    50    1
    55    21    51    1
    56    23    52    1
