@<TRIPOS>MOLECULE
IMPHY010676
 39 41 0 0 0
SMALL
GASTEIGER

@<TRIPOS>ATOM
      1 O           3.9916    0.2217    0.0000 O.3     1  UNL1       -0.3341
      2 O           4.8209    2.2104    0.0000 O.3     1  UNL1       -0.3580
      3 C           4.0984   -0.9551    0.0000 C.3     1  UNL1        0.0862
      4 C           3.1974   -0.5212    0.0000 C.3     1  UNL1        0.0098
      5 C           3.9624   -1.9398    0.0000 C.3     1  UNL1       -0.0137
      6 C           4.9994   -0.5212    0.0000 C.3     1  UNL1        0.0040
      7 C           2.5124   -1.2415    0.0000 C.3     1  UNL1       -0.0435
      8 C           2.9842   -2.1165    0.0000 C.3     1  UNL1       -0.0472
      9 C           4.5984    1.2355    0.0000 C.3     1  UNL1        0.2114
     10 C           2.9749    0.4537    0.0000 C.2     1  UNL1       -0.0654
     11 C           5.2219    0.4537    0.0000 C.2     1  UNL1       -0.0057
     12 C           3.5984    1.2355    0.0000 C.2     1  UNL1       -0.0219
     13 C           4.6840   -2.6322    0.0000 C.3     1  UNL1       -0.0598
     14 C           6.1968    0.6762    0.0000 C.2     1  UNL1       -0.0710
     15 C           2.0000    0.6762    0.0000 C.3     1  UNL1       -0.0433
     16 C           6.8770   -0.0568    0.0000 C.3     1  UNL1       -0.0436
     17 C           6.4916    1.6318    0.0000 C.3     1  UNL1       -0.0436
     18 H           2.4316   -0.1524    0.0000 H       1  UNL1        0.0374
     19 H           4.5481   -1.7363    0.0000 H       1  UNL1        0.0326
     20 H           5.1374   -1.1257    0.0000 H       1  UNL1        0.0340
     21 H           5.6194   -0.5212    0.0000 H       1  UNL1        0.0340
     22 H           2.1105   -0.7694    0.0000 H       1  UNL1        0.0272
     23 H           2.0006   -1.5915    0.0000 H       1  UNL1        0.0272
     24 H           2.4105   -2.3518    0.0000 H       1  UNL1        0.0269
     25 H           3.1579   -2.7117    0.0000 H       1  UNL1        0.0269
     26 H           3.3294    1.7941    0.0000 H       1  UNL1        0.0628
     27 H           4.2548   -3.0795    0.0000 H       1  UNL1        0.0233
     28 H           5.1314   -3.0614    0.0000 H       1  UNL1        0.0233
     29 H           5.1132   -2.1848    0.0000 H       1  UNL1        0.0233
     30 H           2.1380    1.2807    0.0000 H       1  UNL1        0.0274
     31 H           1.3955    0.8142    0.0000 H       1  UNL1        0.0274
     32 H           1.8620    0.0718    0.0000 H       1  UNL1        0.0274
     33 H           4.3665    2.6322    0.0000 H       1  UNL1        0.2134
     34 H           6.4225   -0.4785    0.0000 H       1  UNL1        0.0274
     35 H           7.2987   -0.5113    0.0000 H       1  UNL1        0.0274
     36 H           7.3315    0.3649    0.0000 H       1  UNL1        0.0274
     37 H           7.0840    1.4490    0.0000 H       1  UNL1        0.0274
     38 H           6.6743    2.2242    0.0000 H       1  UNL1        0.0274
     39 H           5.8991    1.8145    0.0000 H       1  UNL1        0.0274
@<TRIPOS>BOND
     1     3     1    1
     2     1     9    1
     3     9     2    1
     4     2    33    1
     5     3     4    1
     6     3     5    1
     7     3     6    1
     8     4     7    1
     9     4    10    1
    10     4    18    1
    11     5     8    1
    12     5    13    1
    13     5    19    1
    14     6    11    1
    15     6    20    1
    16     6    21    1
    17     7     8    1
    18     7    22    1
    19     7    23    1
    20     8    24    1
    21     8    25    1
    22     9    11    1
    23     9    12    1
    24    10    12    2
    25    10    15    1
    26    11    14    2
    27    12    26    1
    28    13    27    1
    29    13    28    1
    30    13    29    1
    31    14    16    1
    32    14    17    1
    33    15    30    1
    34    15    31    1
    35    15    32    1
    36    16    34    1
    37    16    35    1
    38    16    36    1
    39    17    37    1
    40    17    38    1
    41    17    39    1
