@<TRIPOS>MOLECULE
IMPHY012241
 13 13 0 0 0
SMALL
GASTEIGER

@<TRIPOS>ATOM
      1 O           3.0878    1.6739    0.0000 O.2     1  UNL1       -0.2970
      2 O           2.0000   -1.6739    0.0000 O.2     1  UNL1       -0.2970
      3 C           3.8968    0.0861    0.0000 C.3     1  UNL1        0.0129
      4 C           3.5878   -0.8649    0.0000 C.3     1  UNL1        0.0129
      5 C           2.2788    0.0861    0.0000 C.3     1  UNL1        0.0643
      6 C           3.0878    0.6739    0.0000 C.2     1  UNL1        0.1408
      7 C           2.5878   -0.8649    0.0000 C.2     1  UNL1        0.1408
      8 H           4.4632   -0.1660    0.0000 H       1  UNL1        0.0346
      9 H           4.2068    0.6231    0.0000 H       1  UNL1        0.0346
     10 H           3.5230   -1.4815    0.0000 H       1  UNL1        0.0346
     11 H           4.1942   -0.9938    0.0000 H       1  UNL1        0.0346
     12 H           1.9688    0.6231    0.0000 H       1  UNL1        0.0419
     13 H           1.7124   -0.1660    0.0000 H       1  UNL1        0.0419
@<TRIPOS>BOND
     1     1     6    2
     2     2     7    2
     3     3     4    1
     4     3     6    1
     5     3     8    1
     6     3     9    1
     7     4     7    1
     8     4    10    1
     9     4    11    1
    10     5     6    1
    11     5     7    1
    12     5    12    1
    13     5    13    1
