@<TRIPOS>MOLECULE
IMPHY011166
 47 50 0 0 0
SMALL
GASTEIGER

@<TRIPOS>ATOM
      1 O           9.0501   -1.4950    0.0000 O.2     1  UNL1       -0.4919
      2 O           4.6497   -0.9845    0.0000 O.3     1  UNL1       -0.5031
      3 O           7.2762   -2.5192    0.0000 O.2     1  UNL1       -0.2888
      4 O           2.8680    0.0259    0.0000 O.3     1  UNL1       -0.4914
      5 N           6.8422    1.5410    0.0000 N.3     1  UNL1       -0.3015
      6 C           6.3981    0.0501    0.0000 C.3     1  UNL1        0.0156
      7 C           7.2641    0.5501    0.0000 C.3     1  UNL1        0.0070
      8 C           7.2641    1.5501    0.0000 C.3     1  UNL1        0.0213
      9 C           6.1950    0.4200    0.0000 C.3     1  UNL1       -0.0294
     10 C           5.5320    0.5501    0.0000 C.ar    1  UNL1        0.0081
     11 C           6.3820   -0.9914    0.0000 C.3     1  UNL1        0.0239
     12 C           6.3981    2.0501    0.0000 C.3     1  UNL1       -0.0110
     13 C           6.1114    1.2156    0.0000 C.3     1  UNL1       -0.0003
     14 C           5.5320    1.5501    0.0000 C.ar    1  UNL1       -0.0384
     15 C           8.1741    0.0432    0.0000 C.2     1  UNL1       -0.0333
     16 C           7.2800   -1.5192    0.0000 C.2     1  UNL1        0.1978
     17 C           8.1821   -0.9984    0.0000 C.2     1  UNL1        0.1587
     18 C           4.6381    0.0154    0.0000 C.ar    1  UNL1        0.1625
     19 C           7.0501    2.5192    0.0000 C.3     1  UNL1       -0.0124
     20 C           4.6381    2.0848    0.0000 C.ar    1  UNL1       -0.0546
     21 C           3.7320    0.5293    0.0000 C.ar    1  UNL1        0.1616
     22 C           3.7320    1.5709    0.0000 C.ar    1  UNL1       -0.0160
     23 C           9.9142   -0.9917    0.0000 C.3     1  UNL1        0.0789
     24 C           2.0000    0.5226    0.0000 C.3     1  UNL1        0.0790
     25 H           8.0002    0.9751    0.0000 H       1  UNL1        0.0368
     26 H           7.6891    2.2862    0.0000 H       1  UNL1        0.0472
     27 H           5.6002    0.5952    0.0000 H       1  UNL1        0.0286
     28 H           6.7867    0.6052    0.0000 H       1  UNL1        0.0286
     29 H           5.7729   -0.8759    0.0000 H       1  UNL1        0.0355
     30 H           6.1640   -1.5718    0.0000 H       1  UNL1        0.0355
     31 H           6.7966    2.5250    0.0000 H       1  UNL1        0.0329
     32 H           5.9995    2.5250    0.0000 H       1  UNL1        0.0329
     33 H           5.9198    1.8053    0.0000 H       1  UNL1        0.0427
     34 H           5.5049    1.0867    0.0000 H       1  UNL1        0.0427
     35 H           8.7074    0.3594    0.0000 H       1  UNL1        0.0613
     36 H           7.6566    2.3903    0.0000 H       1  UNL1        0.0391
     37 H           7.1790    3.1256    0.0000 H       1  UNL1        0.0391
     38 H           6.4436    2.6481    0.0000 H       1  UNL1        0.0391
     39 H           4.6453    2.7047    0.0000 H       1  UNL1        0.0622
     40 H           3.1963    1.8830    0.0000 H       1  UNL1        0.0655
     41 H           4.1164   -1.3007    0.0000 H       1  UNL1        0.2923
     42 H          10.2262   -1.5274    0.0000 H       1  UNL1        0.0660
     43 H          10.4499   -0.6796    0.0000 H       1  UNL1        0.0660
     44 H           9.6021   -0.4559    0.0000 H       1  UNL1        0.0660
     45 H           2.3079    1.0607    0.0000 H       1  UNL1        0.0660
     46 H           1.4619    0.8305    0.0000 H       1  UNL1        0.0660
     47 H           1.6921   -0.0155    0.0000 H       1  UNL1        0.0660
@<TRIPOS>BOND
     1     1    17    1
     2     1    23    1
     3     2    18    1
     4     2    41    1
     5     3    16    2
     6     4    21    1
     7     4    24    1
     8     5     8    1
     9     5    13    1
    10     5    19    1
    11     6     7    1
    12     6     9    1
    13     6    10    1
    14     6    11    1
    15     7     8    1
    16     7    15    1
    17     7    25    1
    18     8    12    1
    19     8    26    1
    20     9    13    1
    21     9    27    1
    22     9    28    1
    23    10    14   ar
    24    10    18   ar
    25    11    16    1
    26    11    29    1
    27    11    30    1
    28    12    14    1
    29    12    31    1
    30    12    32    1
    31    13    33    1
    32    13    34    1
    33    14    20   ar
    34    15    17    2
    35    15    35    1
    36    16    17    1
    37    18    21   ar
    38    19    36    1
    39    19    37    1
    40    19    38    1
    41    20    22   ar
    42    20    39    1
    43    21    22   ar
    44    22    40    1
    45    23    42    1
    46    23    43    1
    47    23    44    1
    48    24    45    1
    49    24    46    1
    50    24    47    1
