@<TRIPOS>MOLECULE
IMPHY008325
 81 85 0 0 0
SMALL
GASTEIGER

@<TRIPOS>ATOM
      1 O           7.7289   -0.6141    0.0000 O.3     1  UNL1       -0.3474
      2 O           4.0913    0.9248    0.0000 O.3     1  UNL1       -0.3859
      3 O           6.0589    3.4458    0.0000 O.3     1  UNL1       -0.3888
      4 O           4.2576    2.4707    0.0000 O.3     1  UNL1       -0.3744
      5 O           6.8671   -2.1047    0.0000 O.3     1  UNL1       -0.3201
      6 O           6.9291    3.9257    0.0000 O.2     1  UNL1       -0.2882
      7 O           8.7151    4.9285    0.0000 O.2     1  UNL1       -0.4919
      8 O           5.1350   -2.1047    0.0000 O.3     1  UNL1       -0.3404
      9 O           6.8671   -4.1047    0.0000 O.3     1  UNL1       -0.3841
     10 O           5.1350   -5.1047    0.0000 O.3     1  UNL1       -0.3864
     11 O           3.4030   -4.1047    0.0000 O.3     1  UNL1       -0.3865
     12 O           2.5369   -2.6047    0.0000 O.3     1  UNL1       -0.3924
     13 C           6.8912    0.8944    0.0000 C.3     1  UNL1        0.0061
     14 C           6.9109    1.8942    0.0000 C.3     1  UNL1        0.0084
     15 C           5.9869    0.3774    0.0000 C.3     1  UNL1        0.0028
     16 C           7.7866    2.3770    0.0000 C.3     1  UNL1        0.0428
     17 C           7.7472    0.3774    0.0000 C.3     1  UNL1        0.0680
     18 C           8.6426    1.8601    0.0000 C.3     1  UNL1       -0.0222
     19 C           5.0911    0.9090    0.0000 C.3     1  UNL1        0.0952
     20 C           6.0277    2.4463    0.0000 C.3     1  UNL1        0.0883
     21 C           8.6229    0.8603    0.0000 C.3     1  UNL1       -0.0219
     22 C           5.1116    1.9504    0.0000 C.3     1  UNL1        0.1130
     23 C           6.0052   -0.6141    0.0000 C.3     1  UNL1        0.0046
     24 C           6.0352    1.4113    0.0000 C.3     1  UNL1       -0.0565
     25 C           6.8671   -1.1047    0.0000 C.3     1  UNL1        0.1630
     26 C           6.9306    2.8940    0.0000 C.3     1  UNL1       -0.0518
     27 C           9.5624    2.3489    0.0000 C.3     1  UNL1       -0.0271
     28 C           7.7910    3.4186    0.0000 C.2     1  UNL1        0.2034
     29 C           4.5775    0.0510    0.0000 C.3     1  UNL1       -0.0333
     30 C           8.6993    3.9286    0.0000 C.2     1  UNL1        0.1590
     31 C           9.5910    3.3901    0.0000 C.2     1  UNL1       -0.0385
     32 C           4.2812    3.4704    0.0000 C.3     1  UNL1        0.0370
     33 C           6.0010   -2.6047    0.0000 C.3     1  UNL1        0.1908
     34 C           6.0010   -3.6047    0.0000 C.3     1  UNL1        0.1342
     35 C           5.1350   -4.1047    0.0000 C.3     1  UNL1        0.1141
     36 C           9.5890    5.4147    0.0000 C.3     1  UNL1        0.0789
     37 C           4.2690   -2.6047    0.0000 C.3     1  UNL1        0.1130
     38 C           4.2690   -3.6047    0.0000 C.3     1  UNL1        0.1119
     39 C           3.4030   -2.1047    0.0000 C.3     1  UNL1        0.0730
     40 H           7.6385    1.4548    0.0000 H       1  UNL1        0.0342
     41 H           5.2522   -0.0500    0.0000 H       1  UNL1        0.0337
     42 H           8.4751   -0.0616    0.0000 H       1  UNL1        0.0603
     43 H           9.3668    1.4150    0.0000 H       1  UNL1        0.0314
     44 H           6.5746    2.7383    0.0000 H       1  UNL1        0.0623
     45 H           8.8235    0.2736    0.0000 H       1  UNL1        0.0293
     46 H           9.2355    0.9559    0.0000 H       1  UNL1        0.0293
     47 H           5.1274    2.5702    0.0000 H       1  UNL1        0.0651
     48 H           5.3931   -0.5152    0.0000 H       1  UNL1        0.0318
     49 H           5.7991   -1.1989    0.0000 H       1  UNL1        0.0318
     50 H           6.3557    1.9420    0.0000 H       1  UNL1        0.0236
     51 H           5.5045    1.7318    0.0000 H       1  UNL1        0.0236
     52 H           5.7147    0.8806    0.0000 H       1  UNL1        0.0236
     53 H           6.3311   -1.4164    0.0000 H       1  UNL1        0.0911
     54 H           7.2511    3.4247    0.0000 H       1  UNL1        0.0239
     55 H           6.3999    3.2145    0.0000 H       1  UNL1        0.0239
     56 H           6.6101    2.3632    0.0000 H       1  UNL1        0.0239
     57 H           9.7554    1.7597    0.0000 H       1  UNL1        0.0312
     58 H          10.1759    2.4382    0.0000 H       1  UNL1        0.0312
     59 H           4.0455    0.3695    0.0000 H       1  UNL1        0.0258
     60 H           4.2590   -0.4810    0.0000 H       1  UNL1        0.0258
     61 H           5.1094   -0.2675    0.0000 H       1  UNL1        0.0258
     62 H           3.7898    1.4666    0.0000 H       1  UNL1        0.2103
     63 H           5.5319    3.7725    0.0000 H       1  UNL1        0.2099
     64 H          10.1350    3.6874    0.0000 H       1  UNL1        0.0609
     65 H           4.9010    3.4558    0.0000 H       1  UNL1        0.0524
     66 H           4.2958    4.0902    0.0000 H       1  UNL1        0.0524
     67 H           3.6614    3.4850    0.0000 H       1  UNL1        0.0524
     68 H           6.0010   -1.9847    0.0000 H       1  UNL1        0.0938
     69 H           6.5380   -3.2947    0.0000 H       1  UNL1        0.0671
     70 H           5.6720   -4.4147    0.0000 H       1  UNL1        0.0648
     71 H           9.8904    4.8729    0.0000 H       1  UNL1        0.0660
     72 H          10.1308    5.7162    0.0000 H       1  UNL1        0.0660
     73 H           9.2875    5.9565    0.0000 H       1  UNL1        0.0660
     74 H           4.2690   -1.9847    0.0000 H       1  UNL1        0.0647
     75 H           3.7320   -3.2947    0.0000 H       1  UNL1        0.0647
     76 H           6.8671   -4.7247    0.0000 H       1  UNL1        0.2101
     77 H           3.8015   -1.6298    0.0000 H       1  UNL1        0.0584
     78 H           3.0044   -1.6298    0.0000 H       1  UNL1        0.0584
     79 H           4.5981   -5.4147    0.0000 H       1  UNL1        0.2100
     80 H           3.4030   -4.7247    0.0000 H       1  UNL1        0.2100
     81 H           2.0000   -2.2947    0.0000 H       1  UNL1        0.2095
@<TRIPOS>BOND
     1     1    17    1
     2     1    25    1
     3    19     2    1
     4     2    62    1
     5    20     3    1
     6     3    63    1
     7    22     4    1
     8     4    32    1
     9    25     5    1
    10    33     5    1
    11     6    28    2
    12     7    30    1
    13     7    36    1
    14     8    33    1
    15     8    37    1
    16    34     9    1
    17     9    76    1
    18    35    10    1
    19    10    79    1
    20    38    11    1
    21    11    80    1
    22    12    39    1
    23    12    81    1
    24    13    14    1
    25    13    15    1
    26    13    17    1
    27    13    24    1
    28    14    16    1
    29    14    20    1
    30    14    40    1
    31    15    19    1
    32    15    23    1
    33    15    41    1
    34    16    18    1
    35    16    26    1
    36    16    28    1
    37    17    21    1
    38    17    42    1
    39    18    21    1
    40    18    27    1
    41    18    43    1
    42    19    22    1
    43    19    29    1
    44    20    22    1
    45    20    44    1
    46    21    45    1
    47    21    46    1
    48    22    47    1
    49    23    25    1
    50    23    48    1
    51    23    49    1
    52    24    50    1
    53    24    51    1
    54    24    52    1
    55    25    53    1
    56    26    54    1
    57    26    55    1
    58    26    56    1
    59    27    31    1
    60    27    57    1
    61    27    58    1
    62    28    30    1
    63    29    59    1
    64    29    60    1
    65    29    61    1
    66    30    31    2
    67    31    64    1
    68    32    65    1
    69    32    66    1
    70    32    67    1
    71    33    34    1
    72    33    68    1
    73    34    35    1
    74    34    69    1
    75    35    38    1
    76    35    70    1
    77    36    71    1
    78    36    72    1
    79    36    73    1
    80    37    38    1
    81    37    39    1
    82    37    74    1
    83    38    75    1
    84    39    77    1
    85    39    78    1
