@<TRIPOS>MOLECULE
IMPHY002065
 32 31 0 0 0
SMALL
GASTEIGER

@<TRIPOS>ATOM
      1 O           2.5369    0.2500    0.0000 O.3     1  UNL1       -0.4775
      2 O          15.5273   -0.2500    0.0000 O.3     1  UNL1       -0.4775
      3 O           3.4030   -1.2500    0.0000 O.2     1  UNL1       -0.2458
      4 O          14.6613    1.2500    0.0000 O.2     1  UNL1       -0.2458
      5 C           9.4651    0.2500    0.0000 C.2     1  UNL1       -0.0618
      6 C           8.5991   -0.2500    0.0000 C.2     1  UNL1       -0.0618
      7 C           7.7331    0.2500    0.0000 C.2     1  UNL1       -0.0618
      8 C          10.3312   -0.2500    0.0000 C.2     1  UNL1       -0.0618
      9 C           6.8671   -0.2500    0.0000 C.2     1  UNL1       -0.0618
     10 C          11.1972    0.2500    0.0000 C.2     1  UNL1       -0.0618
     11 C           6.0010    0.2500    0.0000 C.2     1  UNL1       -0.0615
     12 C          12.0632   -0.2500    0.0000 C.2     1  UNL1       -0.0615
     13 C          12.9292    0.2500    0.0000 C.2     1  UNL1       -0.0550
     14 C           5.1350   -0.2500    0.0000 C.2     1  UNL1       -0.0550
     15 C           4.2690    0.2500    0.0000 C.2     1  UNL1        0.0223
     16 C          13.7953   -0.2500    0.0000 C.2     1  UNL1        0.0223
     17 C           3.4030   -0.2500    0.0000 C.2     1  UNL1        0.3295
     18 C          14.6613    0.2500    0.0000 C.2     1  UNL1        0.3295
     19 H           8.5991   -0.8700    0.0000 H       1  UNL1        0.0618
     20 H           9.4651    0.8700    0.0000 H       1  UNL1        0.0618
     21 H           7.7331    0.8700    0.0000 H       1  UNL1        0.0618
     22 H          10.3312   -0.8700    0.0000 H       1  UNL1        0.0618
     23 H           6.8671   -0.8700    0.0000 H       1  UNL1        0.0618
     24 H          11.1972    0.8700    0.0000 H       1  UNL1        0.0618
     25 H           6.0010    0.8700    0.0000 H       1  UNL1        0.0618
     26 H          12.0632   -0.8700    0.0000 H       1  UNL1        0.0618
     27 H           5.1350   -0.8700    0.0000 H       1  UNL1        0.0620
     28 H          12.9292    0.8700    0.0000 H       1  UNL1        0.0620
     29 H           4.2690    0.8700    0.0000 H       1  UNL1        0.0689
     30 H          13.7953   -0.8700    0.0000 H       1  UNL1        0.0689
     31 H           2.0000   -0.0600    0.0000 H       1  UNL1        0.2954
     32 H          16.0643    0.0600    0.0000 H       1  UNL1        0.2954
@<TRIPOS>BOND
     1     1    17    1
     2     1    31    1
     3     2    18    1
     4     2    32    1
     5     3    17    2
     6     4    18    2
     7     5     6    1
     8     5     8    2
     9     5    20    1
    10     6     7    2
    11     6    19    1
    12     7     9    1
    13     7    21    1
    14     8    10    1
    15     8    22    1
    16     9    11    2
    17     9    23    1
    18    10    12    2
    19    10    24    1
    20    11    14    1
    21    11    25    1
    22    12    13    1
    23    12    26    1
    24    13    16    2
    25    13    28    1
    26    14    15    2
    27    14    27    1
    28    15    17    1
    29    15    29    1
    30    16    18    1
    31    16    30    1
