@<TRIPOS>MOLECULE
IMPHY005388
 20 19 0 0 0
SMALL
GASTEIGER

@<TRIPOS>ATOM
      1 S           4.5981   -0.2500    0.0000 S.3     1  UNL1       -0.0928
      2 S           5.4641    0.2500    0.0000 S.3     1  UNL1       -0.0890
      3 C           2.8660   -0.2500    0.0000 C.3     1  UNL1       -0.0461
      4 C           3.7320    0.2500    0.0000 C.3     1  UNL1        0.0037
      5 C           2.0000    0.2500    0.0000 C.3     1  UNL1       -0.0645
      6 C           6.3301   -0.2500    0.0000 C.3     1  UNL1        0.0218
      7 C           7.1962    0.2500    0.0000 C.2     1  UNL1       -0.0805
      8 C           8.0622   -0.2500    0.0000 C.2     1  UNL1       -0.1018
      9 H           2.4675   -0.7249    0.0000 H       1  UNL1        0.0271
     10 H           3.2646   -0.7249    0.0000 H       1  UNL1        0.0271
     11 H           4.1306    0.7249    0.0000 H       1  UNL1        0.0384
     12 H           3.3335    0.7249    0.0000 H       1  UNL1        0.0384
     13 H           2.3100    0.7869    0.0000 H       1  UNL1        0.0230
     14 H           1.4631    0.5600    0.0000 H       1  UNL1        0.0230
     15 H           1.6900   -0.2869    0.0000 H       1  UNL1        0.0230
     16 H           5.9316   -0.7249    0.0000 H       1  UNL1        0.0427
     17 H           6.7287   -0.7249    0.0000 H       1  UNL1        0.0427
     18 H           7.1962    0.8700    0.0000 H       1  UNL1        0.0575
     19 H           8.0622   -0.8700    0.0000 H       1  UNL1        0.0532
     20 H           8.5991    0.0600    0.0000 H       1  UNL1        0.0532
@<TRIPOS>BOND
     1     1     2    1
     2     1     4    1
     3     2     6    1
     4     3     4    1
     5     3     5    1
     6     3     9    1
     7     3    10    1
     8     4    11    1
     9     4    12    1
    10     5    13    1
    11     5    14    1
    12     5    15    1
    13     6     7    1
    14     6    16    1
    15     6    17    1
    16     7     8    2
    17     7    18    1
    18     8    19    1
    19     8    20    1
