@<TRIPOS>MOLECULE
IMPHY013432
 56 60 0 0 0
SMALL
GASTEIGER

@<TRIPOS>ATOM
      1 O           5.1350   -2.1296    0.0000 O.3     1  UNL1       -0.3313
      2 O           6.8671   -2.1296    0.0000 O.3     1  UNL1       -0.4571
      3 O           5.1350   -5.1296    0.0000 O.3     1  UNL1       -0.3864
      4 O           3.4030   -4.1296    0.0000 O.3     1  UNL1       -0.3865
      5 O           6.8671   -4.1296    0.0000 O.3     1  UNL1       -0.3829
      6 O           2.5369   -2.6296    0.0000 O.3     1  UNL1       -0.3924
      7 O           8.6793   -0.9344    0.0000 O.2     1  UNL1       -0.4591
      8 O           6.8831    1.9119    0.0000 O.2     1  UNL1       -0.4502
      9 O           4.2151    2.4155    0.0000 O.3     1  UNL1       -0.4883
     10 O           4.2308    0.3672    0.0000 O.2     1  UNL1       -0.2831
     11 C           5.1350   -4.1296    0.0000 C.3     1  UNL1        0.1152
     12 C           4.2690   -3.6296    0.0000 C.3     1  UNL1        0.1120
     13 C           6.0010   -3.6296    0.0000 C.3     1  UNL1        0.1454
     14 C           4.2690   -2.6296    0.0000 C.3     1  UNL1        0.1140
     15 C           6.0010   -2.6296    0.0000 C.3     1  UNL1        0.2310
     16 C           3.4030   -2.1296    0.0000 C.3     1  UNL1        0.0731
     17 C           6.8671   -1.1296    0.0000 C.ar    1  UNL1        0.1675
     18 C           7.7331   -0.6296    0.0000 C.ar    1  UNL1        0.1798
     19 C           6.0010   -0.6296    0.0000 C.ar    1  UNL1       -0.0016
     20 C           7.7331    0.3704    0.0000 C.ar    1  UNL1        0.0667
     21 C           6.0010    0.3704    0.0000 C.ar    1  UNL1        0.0720
     22 C           6.8671    0.8704    0.0000 C.ar    1  UNL1        0.1505
     23 C           8.6793    0.6751    0.0000 C.ar    1  UNL1       -0.0124
     24 C           5.0910    0.8772    0.0000 C.ar    1  UNL1        0.2347
     25 C           5.9851    2.4396    0.0000 C.ar    1  UNL1        0.1808
     26 C           5.0830    1.9188    0.0000 C.ar    1  UNL1        0.2105
     27 C           9.2629   -0.1296    0.0000 C.ar    1  UNL1        0.0934
     28 C           5.9889    3.4396    0.0000 C.ar    1  UNL1        0.0211
     29 C           6.8569    3.9363    0.0000 C.ar    1  UNL1       -0.0510
     30 C           5.1248    3.9430    0.0000 C.ar    1  UNL1       -0.0510
     31 C           6.8607    4.9363    0.0000 C.ar    1  UNL1       -0.0611
     32 C           5.1287    4.9430    0.0000 C.ar    1  UNL1       -0.0611
     33 C           3.3510    1.9122    0.0000 C.3     1  UNL1        0.0791
     34 C           5.9966    5.4396    0.0000 C.ar    1  UNL1       -0.0617
     35 H           5.6720   -4.4396    0.0000 H       1  UNL1        0.0648
     36 H           3.7320   -3.3196    0.0000 H       1  UNL1        0.0647
     37 H           6.5380   -3.3196    0.0000 H       1  UNL1        0.0683
     38 H           4.2690   -2.0096    0.0000 H       1  UNL1        0.0647
     39 H           6.0010   -2.0096    0.0000 H       1  UNL1        0.1084
     40 H           3.8015   -1.6547    0.0000 H       1  UNL1        0.0584
     41 H           3.0044   -1.6547    0.0000 H       1  UNL1        0.0584
     42 H           4.5981   -5.4396    0.0000 H       1  UNL1        0.2100
     43 H           3.4030   -4.7496    0.0000 H       1  UNL1        0.2100
     44 H           6.8671   -4.7496    0.0000 H       1  UNL1        0.2102
     45 H           5.4641   -0.9396    0.0000 H       1  UNL1        0.0664
     46 H           2.0000   -2.3196    0.0000 H       1  UNL1        0.2095
     47 H           8.8719    1.2644    0.0000 H       1  UNL1        0.0656
     48 H           9.8829   -0.1296    0.0000 H       1  UNL1        0.1030
     49 H           7.3926    3.6242    0.0000 H       1  UNL1        0.0625
     50 H           4.5867    3.6350    0.0000 H       1  UNL1        0.0625
     51 H           7.3989    5.2442    0.0000 H       1  UNL1        0.0618
     52 H           4.5930    5.2550    0.0000 H       1  UNL1        0.0618
     53 H           3.0389    2.4479    0.0000 H       1  UNL1        0.0660
     54 H           2.8152    1.6001    0.0000 H       1  UNL1        0.0660
     55 H           3.6630    1.3764    0.0000 H       1  UNL1        0.0660
     56 H           5.9990    6.0596    0.0000 H       1  UNL1        0.0618
@<TRIPOS>BOND
     1     1    14    1
     2     1    15    1
     3    15     2    1
     4     2    17    1
     5    11     3    1
     6     3    42    1
     7    12     4    1
     8     4    43    1
     9     5    13    1
    10     5    44    1
    11     6    16    1
    12     6    46    1
    13     7    18   ar
    14     7    27   ar
    15     8    22   ar
    16     8    25   ar
    17     9    26    1
    18     9    33    1
    19    10    24    2
    20    11    12    1
    21    11    13    1
    22    11    35    1
    23    12    14    1
    24    12    36    1
    25    13    15    1
    26    13    37    1
    27    14    16    1
    28    14    38    1
    29    15    39    1
    30    16    40    1
    31    16    41    1
    32    17    18   ar
    33    17    19   ar
    34    18    20   ar
    35    19    21   ar
    36    19    45    1
    37    20    22   ar
    38    20    23   ar
    39    21    22   ar
    40    21    24   ar
    41    23    27   ar
    42    23    47    1
    43    24    26   ar
    44    25    26   ar
    45    25    28    1
    46    27    48    1
    47    28    29   ar
    48    28    30   ar
    49    29    31   ar
    50    29    49    1
    51    30    32   ar
    52    30    50    1
    53    31    34   ar
    54    31    51    1
    55    32    34   ar
    56    32    52    1
    57    33    53    1
    58    33    54    1
    59    33    55    1
    60    34    56    1
