@<TRIPOS>MOLECULE
IMPHY008071
 48 50 0 0 0
SMALL
GASTEIGER

@<TRIPOS>ATOM
      1 O           6.0682   -1.6550    0.0000 O.2     1  UNL1       -0.4618
      2 O          10.3984   -0.1550    0.0000 O.3     1  UNL1       -0.4910
      3 O          10.3984    1.8450    0.0000 O.3     1  UNL1       -0.5009
      4 O           8.6663    2.8450    0.0000 O.3     1  UNL1       -0.5032
      5 O           6.0682    1.3450    0.0000 O.2     1  UNL1       -0.2863
      6 O           4.3198    1.3796    0.0000 O.3     1  UNL1       -0.5058
      7 O           2.5381   -1.6792    0.0000 O.3     1  UNL1       -0.5065
      8 C           8.6663   -0.1550    0.0000 C.ar    1  UNL1        0.0098
      9 C           7.8003    0.3450    0.0000 C.ar    1  UNL1       -0.0006
     10 C           6.9343   -0.1550    0.0000 C.ar    1  UNL1        0.0649
     11 C           8.6663   -1.1550    0.0000 C.3     1  UNL1       -0.0051
     12 C           9.5323    0.3450    0.0000 C.ar    1  UNL1        0.1690
     13 C           7.8003    1.3450    0.0000 C.ar    1  UNL1       -0.0081
     14 C           6.0682    0.3450    0.0000 C.ar    1  UNL1        0.2037
     15 C           5.2022   -0.1550    0.0000 C.ar    1  UNL1        0.1060
     16 C           9.5323    1.3450    0.0000 C.ar    1  UNL1        0.2011
     17 C           8.6663    1.8450    0.0000 C.ar    1  UNL1        0.1626
     18 C           5.2022   -1.1550    0.0000 C.ar    1  UNL1        0.1454
     19 C           9.5323   -1.6550    0.0000 C.2     1  UNL1       -0.0808
     20 C           6.9343   -1.1550    0.0000 C.ar    1  UNL1        0.1039
     21 C           4.3083    0.3797    0.0000 C.ar    1  UNL1        0.1347
     22 C           9.5323   -2.6550    0.0000 C.2     1  UNL1       -0.0793
     23 C           4.3083   -1.6897    0.0000 C.ar    1  UNL1        0.0231
     24 C           3.4022   -0.1342    0.0000 C.ar    1  UNL1        0.0223
     25 C           3.4022   -1.1758    0.0000 C.ar    1  UNL1        0.1239
     26 C          10.3984   -3.1550    0.0000 C.3     1  UNL1       -0.0440
     27 C           8.6663   -3.1550    0.0000 C.3     1  UNL1       -0.0440
     28 C          11.2644    0.3450    0.0000 C.3     1  UNL1        0.0790
     29 H           8.0558   -1.0473    0.0000 H       1  UNL1        0.0357
     30 H           8.4543   -1.7376    0.0000 H       1  UNL1        0.0357
     31 H           7.2634    1.6550    0.0000 H       1  UNL1        0.0661
     32 H          10.0693   -1.3450    0.0000 H       1  UNL1        0.0575
     33 H           7.4712   -1.4650    0.0000 H       1  UNL1        0.1037
     34 H           4.3154   -2.3096    0.0000 H       1  UNL1        0.0691
     35 H           2.8665    0.1779    0.0000 H       1  UNL1        0.0691
     36 H          10.0884   -3.6919    0.0000 H       1  UNL1        0.0274
     37 H           8.3563   -2.6181    0.0000 H       1  UNL1        0.0274
     38 H           8.1294   -3.4650    0.0000 H       1  UNL1        0.0274
     39 H           8.9763   -3.6919    0.0000 H       1  UNL1        0.0274
     40 H          10.9353   -3.4650    0.0000 H       1  UNL1        0.0274
     41 H          10.7084   -2.6181    0.0000 H       1  UNL1        0.0274
     42 H          10.3984    2.4650    0.0000 H       1  UNL1        0.2924
     43 H           8.1294    3.1550    0.0000 H       1  UNL1        0.2923
     44 H          11.5744   -0.1919    0.0000 H       1  UNL1        0.0660
     45 H          11.8013    0.6550    0.0000 H       1  UNL1        0.0660
     46 H          10.9544    0.8819    0.0000 H       1  UNL1        0.0660
     47 H           3.7865    1.6958    0.0000 H       1  UNL1        0.2922
     48 H           2.0000   -1.3712    0.0000 H       1  UNL1        0.2921
@<TRIPOS>BOND
     1     1    18   ar
     2     1    20   ar
     3     2    12    1
     4     2    28    1
     5     3    16    1
     6     3    42    1
     7     4    17    1
     8     4    43    1
     9     5    14    2
    10     6    21    1
    11     6    47    1
    12     7    25    1
    13     7    48    1
    14     8     9   ar
    15     8    11    1
    16     8    12   ar
    17     9    10    1
    18     9    13   ar
    19    10    14   ar
    20    10    20   ar
    21    11    19    1
    22    11    29    1
    23    11    30    1
    24    12    16   ar
    25    13    17   ar
    26    13    31    1
    27    14    15   ar
    28    15    18   ar
    29    15    21   ar
    30    16    17   ar
    31    18    23   ar
    32    19    22    2
    33    19    32    1
    34    20    33    1
    35    21    24   ar
    36    22    26    1
    37    22    27    1
    38    23    25   ar
    39    23    34    1
    40    24    25   ar
    41    24    35    1
    42    26    36    1
    43    26    40    1
    44    26    41    1
    45    27    37    1
    46    27    38    1
    47    27    39    1
    48    28    44    1
    49    28    45    1
    50    28    46    1
