@<TRIPOS>MOLECULE
IMPHY004725
 40 41 0 0 0
SMALL
GASTEIGER

@<TRIPOS>ATOM
      1 O           5.4641    0.8100    0.0000 O.2     1  UNL1       -0.2973
      2 N           8.0622   -0.6900    0.0000 N.3     1  UNL1       -0.3128
      3 N           2.8660   -0.6900    0.0000 N.3     1  UNL1       -0.3128
      4 C           7.1962   -0.1900    0.0000 C.3     1  UNL1        0.0143
      5 C           3.7320   -0.1900    0.0000 C.3     1  UNL1        0.0143
      6 C           7.1962    0.8100    0.0000 C.3     1  UNL1       -0.0371
      7 C           3.7320    0.8100    0.0000 C.3     1  UNL1       -0.0371
      8 C           6.3301   -0.6900    0.0000 C.3     1  UNL1        0.0213
      9 C           4.5981   -0.6900    0.0000 C.3     1  UNL1        0.0213
     10 C           8.0622    1.3100    0.0000 C.3     1  UNL1       -0.0505
     11 C           2.8660    1.3100    0.0000 C.3     1  UNL1       -0.0505
     12 C           8.9282    0.8100    0.0000 C.3     1  UNL1       -0.0404
     13 C           2.0000    0.8100    0.0000 C.3     1  UNL1       -0.0404
     14 C           8.9282   -0.1900    0.0000 C.3     1  UNL1       -0.0038
     15 C           2.0000   -0.1900    0.0000 C.3     1  UNL1       -0.0038
     16 C           5.4641   -0.1900    0.0000 C.2     1  UNL1        0.1363
     17 H           7.1962   -0.8100    0.0000 H       1  UNL1        0.0464
     18 H           3.7320   -0.8100    0.0000 H       1  UNL1        0.0464
     19 H           6.9841    1.3926    0.0000 H       1  UNL1        0.0280
     20 H           6.5856    0.7023    0.0000 H       1  UNL1        0.0280
     21 H           4.3426    0.7023    0.0000 H       1  UNL1        0.0280
     22 H           3.9441    1.3926    0.0000 H       1  UNL1        0.0280
     23 H           5.9316   -1.1650    0.0000 H       1  UNL1        0.0357
     24 H           6.7287   -1.1650    0.0000 H       1  UNL1        0.0357
     25 H           4.1996   -1.1650    0.0000 H       1  UNL1        0.0357
     26 H           4.9966   -1.1650    0.0000 H       1  UNL1        0.0357
     27 H           8.4607    1.7850    0.0000 H       1  UNL1        0.0266
     28 H           7.6636    1.7850    0.0000 H       1  UNL1        0.0266
     29 H           3.2646    1.7850    0.0000 H       1  UNL1        0.0266
     30 H           2.4675    1.7850    0.0000 H       1  UNL1        0.0266
     31 H           9.5388    0.7023    0.0000 H       1  UNL1        0.0277
     32 H           9.1403    1.3926    0.0000 H       1  UNL1        0.0277
     33 H           1.7880    1.3926    0.0000 H       1  UNL1        0.0277
     34 H           1.3894    0.7023    0.0000 H       1  UNL1        0.0277
     35 H           8.0622   -1.3100    0.0000 H       1  UNL1        0.1222
     36 H           2.8660   -1.3100    0.0000 H       1  UNL1        0.1222
     37 H           9.1403   -0.7726    0.0000 H       1  UNL1        0.0424
     38 H           9.5388   -0.0823    0.0000 H       1  UNL1        0.0424
     39 H           1.3894   -0.0823    0.0000 H       1  UNL1        0.0424
     40 H           1.7880   -0.7726    0.0000 H       1  UNL1        0.0424
@<TRIPOS>BOND
     1     1    16    2
     2     2     4    1
     3     2    14    1
     4     2    35    1
     5     3     5    1
     6     3    15    1
     7     3    36    1
     8     4     6    1
     9     4     8    1
    10     4    17    1
    11     5     7    1
    12     5     9    1
    13     5    18    1
    14     6    10    1
    15     6    19    1
    16     6    20    1
    17     7    11    1
    18     7    21    1
    19     7    22    1
    20     8    16    1
    21     8    23    1
    22     8    24    1
    23     9    16    1
    24     9    25    1
    25     9    26    1
    26    10    12    1
    27    10    27    1
    28    10    28    1
    29    11    13    1
    30    11    29    1
    31    11    30    1
    32    12    14    1
    33    12    31    1
    34    12    32    1
    35    13    15    1
    36    13    33    1
    37    13    34    1
    38    14    37    1
    39    14    38    1
    40    15    39    1
    41    15    40    1
