@<TRIPOS>MOLECULE
IMPHY008139
 32 34 0 0 0
SMALL
GASTEIGER

@<TRIPOS>ATOM
      1 O           5.1738   -1.0347    0.0000 O.2     1  UNL1       -0.4532
      2 O           8.7460   -0.8047    0.0000 O.2     1  UNL1       -0.4590
      3 O           6.9338    2.0000    0.0000 O.3     1  UNL1       -0.4936
      4 O           6.9338   -2.0000    0.0000 O.3     1  UNL1       -0.4884
      5 O           5.1854    2.0346    0.0000 O.2     1  UNL1       -0.2869
      6 O           2.5357   -0.5275    0.0000 O.3     1  UNL1       -0.3873
      7 C           6.0678    0.5000    0.0000 C.ar    1  UNL1        0.1099
      8 C           7.7998    0.5000    0.0000 C.ar    1  UNL1        0.0663
      9 C           6.0678   -0.5000    0.0000 C.ar    1  UNL1        0.1875
     10 C           6.9338    1.0000    0.0000 C.ar    1  UNL1        0.1454
     11 C           7.7998   -0.5000    0.0000 C.ar    1  UNL1        0.1834
     12 C           6.9338   -1.0000    0.0000 C.ar    1  UNL1        0.2063
     13 C           5.1738    1.0347    0.0000 C.ar    1  UNL1        0.1965
     14 C           8.7460    0.8047    0.0000 C.ar    1  UNL1       -0.0125
     15 C           4.2678   -0.5208    0.0000 C.ar    1  UNL1        0.1347
     16 C           4.2678    0.5208    0.0000 C.ar    1  UNL1        0.0263
     17 C           9.3297    0.0000    0.0000 C.ar    1  UNL1        0.0934
     18 C           3.4037   -1.0241    0.0000 C.3     1  UNL1        0.1020
     19 C           7.7998    2.5000    0.0000 C.3     1  UNL1        0.0788
     20 C           7.7998   -2.5000    0.0000 C.3     1  UNL1        0.0791
     21 H           8.9387    1.3940    0.0000 H       1  UNL1        0.0656
     22 H           3.7320    0.8329    0.0000 H       1  UNL1        0.0690
     23 H           9.9497    0.0000    0.0000 H       1  UNL1        0.1030
     24 H           3.0070   -1.5006    0.0000 H       1  UNL1        0.0638
     25 H           3.8040   -1.4976    0.0000 H       1  UNL1        0.0638
     26 H           8.1098    1.9631    0.0000 H       1  UNL1        0.0660
     27 H           8.3368    2.8100    0.0000 H       1  UNL1        0.0660
     28 H           7.4898    3.0369    0.0000 H       1  UNL1        0.0660
     29 H           7.4898   -3.0369    0.0000 H       1  UNL1        0.0660
     30 H           8.3368   -2.8100    0.0000 H       1  UNL1        0.0660
     31 H           8.1098   -1.9631    0.0000 H       1  UNL1        0.0660
     32 H           2.0000   -0.8396    0.0000 H       1  UNL1        0.2100
@<TRIPOS>BOND
     1     1     9   ar
     2     1    15   ar
     3     2    11   ar
     4     2    17   ar
     5     3    10    1
     6     3    19    1
     7     4    12    1
     8     4    20    1
     9     5    13    2
    10     6    18    1
    11     6    32    1
    12     7     9   ar
    13     7    10   ar
    14     7    13   ar
    15     8    10   ar
    16     8    11   ar
    17     8    14   ar
    18     9    12   ar
    19    11    12   ar
    20    13    16   ar
    21    14    17   ar
    22    14    21    1
    23    15    16   ar
    24    15    18    1
    25    16    22    1
    26    17    23    1
    27    18    24    1
    28    18    25    1
    29    19    26    1
    30    19    27    1
    31    19    28    1
    32    20    29    1
    33    20    30    1
    34    20    31    1
