@<TRIPOS>MOLECULE
IMPHY005795
 195 206 0 0 0
SMALL
GASTEIGER

@<TRIPOS>ATOM
      1 O          11.7543    7.0403    0.0000 O.3     1  UNL1       -0.3448
      2 O           9.9818    7.9351    0.0000 O.3     1  UNL1       -0.3480
      3 O          10.3312   -1.2038    0.0000 O.3     1  UNL1       -0.3429
      4 O           8.5238   -0.1509    0.0000 O.3     1  UNL1       -0.3892
      5 O           8.5991   -1.2038    0.0000 O.3     1  UNL1       -0.3405
      6 O          10.3312   -3.2038    0.0000 O.3     1  UNL1       -0.3378
      7 O           8.5991   -4.2038    0.0000 O.3     1  UNL1       -0.3400
      8 O           6.8671   -3.2038    0.0000 O.3     1  UNL1       -0.3865
      9 O          11.1972   -1.7038    0.0000 O.3     1  UNL1       -0.3431
     10 O           6.8671   -0.2037    0.0000 O.3     1  UNL1       -0.3924
     11 O           6.8671   -4.2038    0.0000 O.3     1  UNL1       -0.3405
     12 O          12.0632   -4.2038    0.0000 O.3     1  UNL1       -0.3841
     13 O           8.5991   -6.2038    0.0000 O.3     1  UNL1       -0.3378
     14 O          13.7953   -3.2038    0.0000 O.3     1  UNL1       -0.3401
     15 O          13.7953   -1.2038    0.0000 O.3     1  UNL1       -0.3866
     16 O           6.8671   -7.2038    0.0000 O.3     1  UNL1       -0.3400
     17 O           5.1350   -6.2038    0.0000 O.3     1  UNL1       -0.3865
     18 O           8.8999   -7.9095    0.0000 O.3     1  UNL1       -0.3431
     19 O           5.1350   -3.2038    0.0000 O.3     1  UNL1       -0.3924
     20 O          14.6613   -1.7038    0.0000 O.3     1  UNL1       -0.3461
     21 O           5.1350   -7.2038    0.0000 O.3     1  UNL1       -0.3405
     22 O          10.5687   -5.8564    0.0000 O.3     1  UNL1       -0.3841
     23 O          15.5273   -4.2038    0.0000 O.3     1  UNL1       -0.3841
     24 O           6.8671   -9.2038    0.0000 O.3     1  UNL1       -0.3841
     25 O          11.8543   -7.3885    0.0000 O.3     1  UNL1       -0.3864
     26 O          17.2594   -3.2038    0.0000 O.3     1  UNL1       -0.3864
     27 O          11.1703   -9.2679    0.0000 O.3     1  UNL1       -0.3866
     28 O          17.2594   -1.2038    0.0000 O.3     1  UNL1       -0.3869
     29 O           5.1350  -10.2037    0.0000 O.3     1  UNL1       -0.3864
     30 O           3.4030   -9.2038    0.0000 O.3     1  UNL1       -0.3865
     31 O           2.5369   -7.7038    0.0000 O.3     1  UNL1       -0.3924
     32 C          10.3604    4.9931    0.0000 C.3     1  UNL1       -0.0233
     33 C          11.2284    4.4965    0.0000 C.3     1  UNL1       -0.0298
     34 C          11.2322    3.4965    0.0000 C.3     1  UNL1       -0.0343
     35 C          10.5659    5.9657    0.0000 C.3     1  UNL1       -0.0015
     36 C          10.3681    2.9931    0.0000 C.3     1  UNL1       -0.0322
     37 C          10.3561    1.9516    0.0000 C.3     1  UNL1       -0.0237
     38 C          11.5542    6.0726    0.0000 C.3     1  UNL1        0.0660
     39 C          11.9628    5.1664    0.0000 C.3     1  UNL1       -0.0226
     40 C           9.4963    4.4898    0.0000 C.3     1  UNL1       -0.0467
     41 C           9.5002    3.4898    0.0000 C.3     1  UNL1       -0.0489
     42 C          10.1636    6.8683    0.0000 C.3     1  UNL1        0.0160
     43 C          11.2562    1.4273    0.0000 C.3     1  UNL1       -0.0329
     44 C          12.1442    2.9931    0.0000 C.3     1  UNL1       -0.0494
     45 C          10.8966    7.5311    0.0000 C.3     1  UNL1        0.1732
     46 C          12.1562    1.9516    0.0000 C.3     1  UNL1       -0.0494
     47 C           9.4925    5.4898    0.0000 C.3     1  UNL1       -0.0590
     48 C           9.4062    1.4273    0.0000 C.3     1  UNL1       -0.0185
     49 C          11.2687    0.3424    0.0000 C.3     1  UNL1       -0.0207
     50 C           9.4920    2.4549    0.0000 C.3     1  UNL1       -0.0590
     51 C           9.3936    0.3424    0.0000 C.3     1  UNL1        0.0819
     52 C          10.3312   -0.2037    0.0000 C.3     1  UNL1        0.0879
     53 C           9.1852    7.0750    0.0000 C.3     1  UNL1       -0.0572
     54 C          11.7038    8.1213    0.0000 C.3     1  UNL1        0.0020
     55 C          11.5963    9.1155    0.0000 C.3     1  UNL1       -0.0435
     56 C           9.8743    8.9293    0.0000 C.3     1  UNL1        0.0535
     57 C          10.6816    9.5195    0.0000 C.3     1  UNL1       -0.0201
     58 C          10.5741   10.5137    0.0000 C.3     1  UNL1       -0.0603
     59 C           9.4651   -1.7038    0.0000 C.3     1  UNL1        0.1887
     60 C           9.4651   -2.7038    0.0000 C.3     1  UNL1        0.1410
     61 C           8.5991   -3.2038    0.0000 C.3     1  UNL1        0.1209
     62 C           7.7331   -1.7038    0.0000 C.3     1  UNL1        0.1130
     63 C           7.7331   -2.7038    0.0000 C.3     1  UNL1        0.1123
     64 C           6.8671   -1.2038    0.0000 C.3     1  UNL1        0.0730
     65 C          11.1972   -2.7038    0.0000 C.3     1  UNL1        0.1884
     66 C           7.7331   -4.7038    0.0000 C.3     1  UNL1        0.1888
     67 C          12.0632   -3.2038    0.0000 C.3     1  UNL1        0.1345
     68 C           7.7331   -5.7038    0.0000 C.3     1  UNL1        0.1410
     69 C          12.9292   -2.7038    0.0000 C.3     1  UNL1        0.1205
     70 C          12.0632   -1.2038    0.0000 C.3     1  UNL1        0.0873
     71 C          12.9292   -1.7038    0.0000 C.3     1  UNL1        0.1098
     72 C           6.8671   -6.2038    0.0000 C.3     1  UNL1        0.1209
     73 C           6.0010   -4.7038    0.0000 C.3     1  UNL1        0.1130
     74 C           6.0010   -5.7038    0.0000 C.3     1  UNL1        0.1123
     75 C          12.0632   -0.2037    0.0000 C.3     1  UNL1       -0.0361
     76 C           5.1350   -4.2038    0.0000 C.3     1  UNL1        0.0730
     77 C           9.2420   -6.9697    0.0000 C.3     1  UNL1        0.1884
     78 C          14.6613   -2.7038    0.0000 C.3     1  UNL1        0.1880
     79 C           6.0010   -7.7038    0.0000 C.3     1  UNL1        0.1884
     80 C          10.2267   -6.7961    0.0000 C.3     1  UNL1        0.1341
     81 C          15.5273   -3.2038    0.0000 C.3     1  UNL1        0.1341
     82 C           6.0010   -8.7038    0.0000 C.3     1  UNL1        0.1341
     83 C          10.8695   -7.5622    0.0000 C.3     1  UNL1        0.1140
     84 C          16.3933   -2.7038    0.0000 C.3     1  UNL1        0.1137
     85 C           9.5427   -8.6755    0.0000 C.3     1  UNL1        0.0873
     86 C          10.5276   -8.5018    0.0000 C.3     1  UNL1        0.1095
     87 C          15.5273   -1.2038    0.0000 C.3     1  UNL1        0.0792
     88 C          16.3933   -1.7038    0.0000 C.3     1  UNL1        0.1069
     89 C           5.1350   -9.2038    0.0000 C.3     1  UNL1        0.1141
     90 C           4.2690   -7.7038    0.0000 C.3     1  UNL1        0.1130
     91 C           4.2690   -8.7038    0.0000 C.3     1  UNL1        0.1119
     92 C           9.2007   -9.6152    0.0000 C.3     1  UNL1       -0.0361
     93 C           3.4030   -7.2038    0.0000 C.3     1  UNL1        0.0730
     94 H          12.0067    4.1548    0.0000 H       1  UNL1        0.0310
     95 H          11.9634    3.9300    0.0000 H       1  UNL1        0.0306
     96 H           9.7206    5.8762    0.0000 H       1  UNL1        0.0335
     97 H          11.1026    2.5653    0.0000 H       1  UNL1        0.0309
     98 H          12.3991    6.1658    0.0000 H       1  UNL1        0.0600
     99 H          12.3302    4.6670    0.0000 H       1  UNL1        0.0293
    100 H          12.4981    5.4792    0.0000 H       1  UNL1        0.0293
    101 H           9.2820    5.0716    0.0000 H       1  UNL1        0.0271
    102 H           8.8862    4.3798    0.0000 H       1  UNL1        0.0271
    103 H           8.8892    3.5951    0.0000 H       1  UNL1        0.0268
    104 H           9.2904    2.9064    0.0000 H       1  UNL1        0.0268
    105 H           9.9422    7.6890    0.0000 H       1  UNL1        0.0354
    106 H          11.9955    1.0080    0.0000 H       1  UNL1        0.0307
    107 H          12.7562    2.8941    0.0000 H       1  UNL1        0.0268
    108 H          12.3465    3.5792    0.0000 H       1  UNL1        0.0268
    109 H          12.3720    1.3703    0.0000 H       1  UNL1        0.0268
    110 H          12.7658    2.0647    0.0000 H       1  UNL1        0.0268
    111 H           9.8004    6.0279    0.0000 H       1  UNL1        0.0235
    112 H           8.9544    5.7977    0.0000 H       1  UNL1        0.0235
    113 H           9.1846    4.9517    0.0000 H       1  UNL1        0.0235
    114 H           9.2039    2.0134    0.0000 H       1  UNL1        0.0296
    115 H           8.7941    1.3283    0.0000 H       1  UNL1        0.0296
    116 H          11.4845   -0.2389    0.0000 H       1  UNL1        0.0294
    117 H          11.8783    0.4555    0.0000 H       1  UNL1        0.0294
    118 H           9.8041    2.9906    0.0000 H       1  UNL1        0.0235
    119 H           8.9563    2.7670    0.0000 H       1  UNL1        0.0235
    120 H           9.1799    1.9192    0.0000 H       1  UNL1        0.0235
    121 H           8.6616    0.7744    0.0000 H       1  UNL1        0.0619
    122 H          11.0681   -0.6273    0.0000 H       1  UNL1        0.0623
    123 H           9.3133    7.6816    0.0000 H       1  UNL1        0.0234
    124 H           8.5786    7.2032    0.0000 H       1  UNL1        0.0234
    125 H           9.0570    6.4684    0.0000 H       1  UNL1        0.0234
    126 H          11.9773    7.5649    0.0000 H       1  UNL1        0.0317
    127 H          12.2993    8.2940    0.0000 H       1  UNL1        0.0317
    128 H          12.2149    9.0741    0.0000 H       1  UNL1        0.0270
    129 H          11.7445    9.7176    0.0000 H       1  UNL1        0.0270
    130 H           9.6008    9.4858    0.0000 H       1  UNL1        0.0563
    131 H           9.2788    8.7567    0.0000 H       1  UNL1        0.0563
    132 H           9.9040    9.8630    0.0000 H       1  UNL1        0.0320
    133 H           7.9892    0.1632    0.0000 H       1  UNL1        0.2099
    134 H          11.1905   10.5804    0.0000 H       1  UNL1        0.0233
    135 H          10.5074   11.1302    0.0000 H       1  UNL1        0.0233
    136 H           9.9576   10.4471    0.0000 H       1  UNL1        0.0233
    137 H          10.2013   -2.1288    0.0000 H       1  UNL1        0.0938
    138 H           9.4651   -3.5538    0.0000 H       1  UNL1        0.0675
    139 H           7.8630   -3.6288    0.0000 H       1  UNL1        0.0651
    140 H           7.7331   -0.8537    0.0000 H       1  UNL1        0.0647
    141 H           6.9970   -2.2788    0.0000 H       1  UNL1        0.0647
    142 H           6.2565   -1.0961    0.0000 H       1  UNL1        0.0584
    143 H           6.6550   -1.7864    0.0000 H       1  UNL1        0.0584
    144 H          11.1972   -3.5538    0.0000 H       1  UNL1        0.0938
    145 H           6.3301   -2.8938    0.0000 H       1  UNL1        0.2100
    146 H           7.7331   -3.8538    0.0000 H       1  UNL1        0.0938
    147 H          12.7993   -3.6288    0.0000 H       1  UNL1        0.0671
    148 H           6.3301    0.1063    0.0000 H       1  UNL1        0.2095
    149 H           7.7331   -6.5538    0.0000 H       1  UNL1        0.0675
    150 H          13.6654   -2.2788    0.0000 H       1  UNL1        0.0651
    151 H          11.3271   -0.7787    0.0000 H       1  UNL1        0.0621
    152 H          12.9292   -0.8537    0.0000 H       1  UNL1        0.0646
    153 H           6.1309   -6.6288    0.0000 H       1  UNL1        0.0651
    154 H           6.0010   -3.8538    0.0000 H       1  UNL1        0.0647
    155 H           5.2649   -5.2787    0.0000 H       1  UNL1        0.0647
    156 H          12.6002   -4.5138    0.0000 H       1  UNL1        0.2101
    157 H          12.6832   -0.2037    0.0000 H       1  UNL1        0.0255
    158 H          12.0632    0.4163    0.0000 H       1  UNL1        0.0255
    159 H          11.4432   -0.2037    0.0000 H       1  UNL1        0.0255
    160 H           4.5244   -4.0961    0.0000 H       1  UNL1        0.0584
    161 H           4.9230   -4.7864    0.0000 H       1  UNL1        0.0584
    162 H          13.7953   -0.5837    0.0000 H       1  UNL1        0.2100
    163 H           9.5327   -6.1710    0.0000 H       1  UNL1        0.0938
    164 H          13.9252   -2.2788    0.0000 H       1  UNL1        0.0937
    165 H           4.5981   -5.8938    0.0000 H       1  UNL1        0.2100
    166 H           6.7372   -8.1288    0.0000 H       1  UNL1        0.0938
    167 H          11.0638   -6.6485    0.0000 H       1  UNL1        0.0671
    168 H          16.2634   -3.6288    0.0000 H       1  UNL1        0.0671
    169 H           4.5981   -2.8938    0.0000 H       1  UNL1        0.2095
    170 H           6.0010   -9.5538    0.0000 H       1  UNL1        0.0671
    171 H          11.4159   -8.2133    0.0000 H       1  UNL1        0.0648
    172 H          17.1295   -2.2788    0.0000 H       1  UNL1        0.0647
    173 H           8.7056   -8.8231    0.0000 H       1  UNL1        0.0621
    174 H          10.2369   -9.3006    0.0000 H       1  UNL1        0.0646
    175 H          15.9258   -0.7288    0.0000 H       1  UNL1        0.0587
    176 H          15.1288   -0.7288    0.0000 H       1  UNL1        0.0587
    177 H          16.3933   -0.8537    0.0000 H       1  UNL1        0.0643
    178 H           4.3989   -9.6288    0.0000 H       1  UNL1        0.0648
    179 H           4.2690   -6.8538    0.0000 H       1  UNL1        0.0647
    180 H          11.1793   -5.7488    0.0000 H       1  UNL1        0.2101
    181 H           3.5329   -8.2788    0.0000 H       1  UNL1        0.0647
    182 H          16.0643   -4.5138    0.0000 H       1  UNL1        0.2101
    183 H           8.6181   -9.4032    0.0000 H       1  UNL1        0.0255
    184 H           8.9886  -10.1978    0.0000 H       1  UNL1        0.0255
    185 H           9.7833   -9.8273    0.0000 H       1  UNL1        0.0255
    186 H           6.8671   -9.8238    0.0000 H       1  UNL1        0.2101
    187 H          12.2528   -7.8635    0.0000 H       1  UNL1        0.2100
    188 H          17.7963   -2.8938    0.0000 H       1  UNL1        0.2100
    189 H           3.8015   -6.7288    0.0000 H       1  UNL1        0.0584
    190 H           3.0044   -6.7288    0.0000 H       1  UNL1        0.0584
    191 H          11.7808   -9.1603    0.0000 H       1  UNL1        0.2100
    192 H          17.2594   -0.5837    0.0000 H       1  UNL1        0.2100
    193 H           4.5981  -10.5137    0.0000 H       1  UNL1        0.2100
    194 H           3.4030   -9.8238    0.0000 H       1  UNL1        0.2100
    195 H           2.0000   -7.3938    0.0000 H       1  UNL1        0.2095
@<TRIPOS>BOND
     1     1    38    1
     2     1    45    1
     3     2    45    1
     4     2    56    1
     5     3    52    1
     6     3    59    1
     7     4    51    1
     8     4   133    1
     9     5    59    1
    10     5    62    1
    11     6    60    1
    12     6    65    1
    13     7    61    1
    14     7    66    1
    15     8    63    1
    16     8   145    1
    17     9    65    1
    18     9    70    1
    19    10    64    1
    20    10   148    1
    21    11    66    1
    22    11    73    1
    23    12    67    1
    24    12   156    1
    25    13    68    1
    26    13    77    1
    27    14    69    1
    28    14    78    1
    29    15    71    1
    30    15   162    1
    31    16    72    1
    32    16    79    1
    33    17    74    1
    34    17   165    1
    35    18    77    1
    36    18    85    1
    37    19    76    1
    38    19   169    1
    39    20    78    1
    40    20    87    1
    41    21    79    1
    42    21    90    1
    43    22    80    1
    44    22   180    1
    45    23    81    1
    46    23   182    1
    47    24    82    1
    48    24   186    1
    49    25    83    1
    50    25   187    1
    51    26    84    1
    52    26   188    1
    53    27    86    1
    54    27   191    1
    55    28    88    1
    56    28   192    1
    57    29    89    1
    58    29   193    1
    59    30    91    1
    60    30   194    1
    61    31    93    1
    62    31   195    1
    63    32    33    1
    64    32    35    1
    65    32    40    1
    66    32    47    1
    67    33    34    1
    68    33    39    1
    69    33    94    1
    70    34    36    1
    71    34    44    1
    72    34    95    1
    73    35    38    1
    74    35    42    1
    75    35    96    1
    76    36    37    1
    77    36    41    1
    78    36    97    1
    79    37    43    1
    80    37    48    1
    81    37    50    1
    82    38    39    1
    83    38    98    1
    84    39    99    1
    85    39   100    1
    86    40    41    1
    87    40   101    1
    88    40   102    1
    89    41   103    1
    90    41   104    1
    91    42    45    1
    92    42    53    1
    93    42   105    1
    94    43    46    1
    95    43    49    1
    96    43   106    1
    97    44    46    1
    98    44   107    1
    99    44   108    1
   100    45    54    1
   101    46   109    1
   102    46   110    1
   103    47   111    1
   104    47   112    1
   105    47   113    1
   106    48    51    1
   107    48   114    1
   108    48   115    1
   109    49    52    1
   110    49   116    1
   111    49   117    1
   112    50   118    1
   113    50   119    1
   114    50   120    1
   115    51    52    1
   116    51   121    1
   117    52   122    1
   118    53   123    1
   119    53   124    1
   120    53   125    1
   121    54    55    1
   122    54   126    1
   123    54   127    1
   124    55    57    1
   125    55   128    1
   126    55   129    1
   127    56    57    1
   128    56   130    1
   129    56   131    1
   130    57    58    1
   131    57   132    1
   132    58   134    1
   133    58   135    1
   134    58   136    1
   135    59    60    1
   136    59   137    1
   137    60    61    1
   138    60   138    1
   139    61    63    1
   140    61   139    1
   141    62    63    1
   142    62    64    1
   143    62   140    1
   144    63   141    1
   145    64   142    1
   146    64   143    1
   147    65    67    1
   148    65   144    1
   149    66    68    1
   150    66   146    1
   151    67    69    1
   152    67   147    1
   153    68    72    1
   154    68   149    1
   155    69    71    1
   156    69   150    1
   157    70    71    1
   158    70    75    1
   159    70   151    1
   160    71   152    1
   161    72    74    1
   162    72   153    1
   163    73    74    1
   164    73    76    1
   165    73   154    1
   166    74   155    1
   167    75   157    1
   168    75   158    1
   169    75   159    1
   170    76   160    1
   171    76   161    1
   172    77    80    1
   173    77   163    1
   174    78    81    1
   175    78   164    1
   176    79    82    1
   177    79   166    1
   178    80    83    1
   179    80   167    1
   180    81    84    1
   181    81   168    1
   182    82    89    1
   183    82   170    1
   184    83    86    1
   185    83   171    1
   186    84    88    1
   187    84   172    1
   188    85    86    1
   189    85    92    1
   190    85   173    1
   191    86   174    1
   192    87    88    1
   193    87   175    1
   194    87   176    1
   195    88   177    1
   196    89    91    1
   197    89   178    1
   198    90    91    1
   199    90    93    1
   200    90   179    1
   201    91   181    1
   202    92   183    1
   203    92   184    1
   204    92   185    1
   205    93   189    1
   206    93   190    1
