@<TRIPOS>MOLECULE
IMPHY003186
 35 36 0 0 0
SMALL
GASTEIGER

@<TRIPOS>ATOM
      1 S           4.5981   -3.0173    0.0000 S.3     1  UNL1        0.0000
      2 NA          5.4641   -4.5173    0.0000 Na      2  UNL2        0.0000
      3 O           2.0000    2.4827    0.0000 O.2     1  UNL1        0.0000
      4 O           4.5981   -4.0173    0.0000 O.co2   1  UNL1       -1.0000
      5 O           5.5981   -3.0173    0.0000 O.2     1  UNL1        0.0000
      6 O           3.5981   -3.0173    0.0000 O.2     1  UNL1        0.0000
      7 N           4.5981    0.9827    0.0000 N.pl3   1  UNL1        0.0000
      8 N           3.7320    1.4827    0.0000 N.2     1  UNL1        0.0000
      9 C           4.5981    2.9827    0.0000 C.ar    1  UNL1        0.0000
     10 C           4.5981    3.9827    0.0000 C.ar    1  UNL1        0.0000
     11 C           3.7320    2.4827    0.0000 C.2     1  UNL1        0.0000
     12 C           4.5981   -0.0173    0.0000 C.ar    1  UNL1        0.0000
     13 C           4.5981   -2.0173    0.0000 C.ar    1  UNL1        0.0000
     14 C           5.4920    2.4480    0.0000 C.ar    1  UNL1        0.0000
     15 C           3.7320    4.4827    0.0000 C.2     1  UNL1        0.0000
     16 C           2.8660    2.9827    0.0000 C.2     1  UNL1        0.0000
     17 C           5.4920    4.5173    0.0000 C.ar    1  UNL1        0.0000
     18 C           2.8660    3.9827    0.0000 C.2     1  UNL1        0.0000
     19 C           3.7320   -0.5173    0.0000 C.ar    1  UNL1        0.0000
     20 C           5.4641   -0.5173    0.0000 C.ar    1  UNL1        0.0000
     21 C           3.7320   -1.5173    0.0000 C.ar    1  UNL1        0.0000
     22 C           5.4641   -1.5173    0.0000 C.ar    1  UNL1        0.0000
     23 C           6.3981    2.9618    0.0000 C.ar    1  UNL1        0.0000
     24 C           6.3981    4.0035    0.0000 C.ar    1  UNL1        0.0000
     25 H           5.4848    1.8280    0.0000 H       1  UNL1        0.0000
     26 H           3.7320    5.1027    0.0000 H       1  UNL1        0.0000
     27 H           5.4848    5.1373    0.0000 H       1  UNL1        0.0000
     28 H           3.1951   -0.2073    0.0000 H       1  UNL1        0.0000
     29 H           6.0010   -0.2073    0.0000 H       1  UNL1        0.0000
     30 H           2.3291    4.2927    0.0000 H       1  UNL1        0.0000
     31 H           3.1951   -1.8273    0.0000 H       1  UNL1        0.0000
     32 H           6.0010   -1.8273    0.0000 H       1  UNL1        0.0000
     33 H           5.1350    1.2927    0.0000 H       1  UNL1        0.0000
     34 H           6.9338    2.6498    0.0000 H       1  UNL1        0.0000
     35 H           6.9338    4.3156    0.0000 H       1  UNL1        0.0000
@<TRIPOS>UNITY_ATOM_ATTR
2 1
charge 1
4 1
charge -1
@<TRIPOS>BOND
     1     1     4    1
     2     1     5    2
     3     1     6    2
     4     1    13    1
     5     3    16    2
     6     7     8    1
     7     7    12    1
     8     7    33    1
     9     8    11    2
    10     9    10   ar
    11     9    11    1
    12     9    14   ar
    13    10    15    1
    14    10    17   ar
    15    11    16    1
    16    12    19   ar
    17    12    20   ar
    18    13    21   ar
    19    13    22   ar
    20    14    23   ar
    21    14    25    1
    22    15    18    2
    23    15    26    1
    24    16    18    1
    25    17    24   ar
    26    17    27    1
    27    18    30    1
    28    19    21   ar
    29    19    28    1
    30    20    22   ar
    31    20    29    1
    32    21    31    1
    33    22    32    1
    34    23    24   ar
    35    23    34    1
    36    24    35    1
