@<TRIPOS>MOLECULE
IMPHY002272
 77 84 0 0 0
SMALL
GASTEIGER

@<TRIPOS>ATOM
      1 O           7.0231   -0.3169    0.0000 O.3     1  UNL1       -0.4445
      2 O           5.2911    0.6831    0.0000 O.3     1  UNL1       -0.4445
      3 O           8.7933    0.6800    0.0000 O.3     1  UNL1       -0.4913
      4 O           3.5209   -0.3138    0.0000 O.3     1  UNL1       -0.5032
      5 O           2.5974   -1.7186    0.0000 O.3     1  UNL1       -0.4524
      6 O           2.1414   -3.7762    0.0000 O.3     1  UNL1       -0.5033
      7 N           5.1724    3.8301    0.0000 N.3     1  UNL1       -0.2977
      8 N           7.1418   -3.4639    0.0000 N.3     1  UNL1       -0.2977
      9 C           5.1891    2.7452    0.0000 C.3     1  UNL1        0.0432
     10 C           7.1251   -2.3790    0.0000 C.3     1  UNL1        0.0432
     11 C           6.1410    2.2246    0.0000 C.ar    1  UNL1        0.0194
     12 C           6.1732   -1.8584    0.0000 C.ar    1  UNL1        0.0194
     13 C           7.0391    2.7524    0.0000 C.ar    1  UNL1       -0.0343
     14 C           5.2751   -2.3862    0.0000 C.ar    1  UNL1       -0.0343
     15 C           6.1078    4.3798    0.0000 C.3     1  UNL1        0.0032
     16 C           6.2064   -4.0136    0.0000 C.3     1  UNL1        0.0032
     17 C           7.0474    3.8373    0.0000 C.3     1  UNL1       -0.0143
     18 C           5.2668   -3.4711    0.0000 C.3     1  UNL1       -0.0143
     19 C           6.1571    1.1831    0.0000 C.ar    1  UNL1        0.1794
     20 C           6.1571   -0.8169    0.0000 C.ar    1  UNL1        0.1794
     21 C           4.1603    2.5819    0.0000 C.3     1  UNL1       -0.0078
     22 C           6.2452   -2.9367    0.0000 C.3     1  UNL1       -0.0076
     23 C           7.0231    0.6831    0.0000 C.ar    1  UNL1        0.2122
     24 C           5.2911   -0.3169    0.0000 C.ar    1  UNL1        0.2120
     25 C           7.9412    2.2316    0.0000 C.ar    1  UNL1       -0.0125
     26 C           4.3730   -1.8653    0.0000 C.ar    1  UNL1       -0.0127
     27 C           7.9331    1.1900    0.0000 C.ar    1  UNL1        0.1661
     28 C           4.3006    4.3201    0.0000 C.3     1  UNL1       -0.0122
     29 C           8.0136   -3.9538    0.0000 C.3     1  UNL1       -0.0122
     30 C           4.3811   -0.8237    0.0000 C.ar    1  UNL1        0.1631
     31 C           5.2264   -3.1540    0.0000 C.ar    1  UNL1       -0.0419
     32 C           3.2523    2.0711    0.0000 C.ar    1  UNL1       -0.0453
     33 C           4.1956   -3.0036    0.0000 C.ar    1  UNL1       -0.0124
     34 C           2.9820    1.1080    0.0000 C.ar    1  UNL1       -0.0550
     35 C           2.5784    1.2767    0.0000 C.ar    1  UNL1       -0.0550
     36 C           4.7821   -4.0490    0.0000 C.ar    1  UNL1       -0.0548
     37 C           3.2812   -2.5044    0.0000 C.ar    1  UNL1        0.1698
     38 C           2.6403    0.1679    0.0000 C.ar    1  UNL1       -0.0191
     39 C           2.2226    0.2976    0.0000 C.ar    1  UNL1       -0.0191
     40 C           2.2292   -0.7441    0.0000 C.ar    1  UNL1        0.1286
     41 C           3.7949   -4.2034    0.0000 C.ar    1  UNL1       -0.0162
     42 C           3.0986   -3.4868    0.0000 C.ar    1  UNL1        0.1591
     43 C           9.6651    1.1699    0.0000 C.3     1  UNL1        0.0790
     44 H           5.7200    3.0655    0.0000 H       1  UNL1        0.0516
     45 H           7.8430   -1.9239    0.0000 H       1  UNL1        0.0516
     46 H           6.5051    4.8558    0.0000 H       1  UNL1        0.0430
     47 H           5.7068    4.8527    0.0000 H       1  UNL1        0.0430
     48 H           5.8091   -4.4896    0.0000 H       1  UNL1        0.0430
     49 H           6.6074   -4.4865    0.0000 H       1  UNL1        0.0430
     50 H           7.6575    3.7265    0.0000 H       1  UNL1        0.0326
     51 H           7.2610    4.4194    0.0000 H       1  UNL1        0.0326
     52 H           4.6567   -3.3603    0.0000 H       1  UNL1        0.0326
     53 H           5.0532   -4.0532    0.0000 H       1  UNL1        0.0326
     54 H           4.3123    3.1829    0.0000 H       1  UNL1        0.0332
     55 H           4.3641    1.9963    0.0000 H       1  UNL1        0.0332
     56 H           6.1250   -3.5450    0.0000 H       1  UNL1        0.0332
     57 H           6.0109   -2.3627    0.0000 H       1  UNL1        0.0332
     58 H           8.4793    2.5395    0.0000 H       1  UNL1        0.0658
     59 H           3.8349   -2.1733    0.0000 H       1  UNL1        0.0658
     60 H           4.6044    4.8606    0.0000 H       1  UNL1        0.0391
     61 H           3.7602    4.6238    0.0000 H       1  UNL1        0.0391
     62 H           3.9969    3.7796    0.0000 H       1  UNL1        0.0391
     63 H           7.7098   -4.4943    0.0000 H       1  UNL1        0.0391
     64 H           8.5540   -4.2576    0.0000 H       1  UNL1        0.0391
     65 H           8.3173   -3.4134    0.0000 H       1  UNL1        0.0391
     66 H           3.9992   -3.5917    0.0000 H       1  UNL1        0.0658
     67 H           3.5722    0.9182    0.0000 H       1  UNL1        0.0621
     68 H           2.0423    1.5880    0.0000 H       1  UNL1        0.0621
     69 H           5.1487   -4.5490    0.0000 H       1  UNL1        0.0621
     70 H           3.5280    0.3062    0.0000 H       1  UNL1        0.2923
     71 H           3.2147   -0.0656    0.0000 H       1  UNL1        0.0654
     72 H           1.6117    0.4032    0.0000 H       1  UNL1        0.0654
     73 H           3.5985   -4.7915    0.0000 H       1  UNL1        0.0655
     74 H           9.9688    0.6294    0.0000 H       1  UNL1        0.0660
     75 H          10.2055    1.4737    0.0000 H       1  UNL1        0.0660
     76 H           9.3613    1.7104    0.0000 H       1  UNL1        0.0660
     77 H           2.0000   -4.3798    0.0000 H       1  UNL1        0.2923
@<TRIPOS>BOND
     1     1    20    1
     2     1    23    1
     3     2    19    1
     4     2    24    1
     5     3    27    1
     6     3    43    1
     7     4    30    1
     8     4    70    1
     9     5    37    1
    10     5    40    1
    11     6    42    1
    12     6    77    1
    13     7     9    1
    14     7    15    1
    15     7    28    1
    16     8    10    1
    17     8    16    1
    18     8    29    1
    19     9    11    1
    20     9    21    1
    21     9    44    1
    22    10    12    1
    23    10    22    1
    24    10    45    1
    25    11    13   ar
    26    11    19   ar
    27    12    14   ar
    28    12    20   ar
    29    13    17    1
    30    13    25   ar
    31    14    18    1
    32    14    26   ar
    33    15    17    1
    34    15    46    1
    35    15    47    1
    36    16    18    1
    37    16    48    1
    38    16    49    1
    39    17    50    1
    40    17    51    1
    41    18    52    1
    42    18    53    1
    43    19    23   ar
    44    20    24   ar
    45    21    32    1
    46    21    54    1
    47    21    55    1
    48    22    31    1
    49    22    56    1
    50    22    57    1
    51    23    27   ar
    52    24    30   ar
    53    25    27   ar
    54    25    58    1
    55    26    30   ar
    56    26    59    1
    57    28    60    1
    58    28    61    1
    59    28    62    1
    60    29    63    1
    61    29    64    1
    62    29    65    1
    63    31    33   ar
    64    31    36   ar
    65    32    34   ar
    66    32    35   ar
    67    33    37   ar
    68    33    66    1
    69    34    38   ar
    70    34    67    1
    71    35    39   ar
    72    35    68    1
    73    36    41   ar
    74    36    69    1
    75    37    42   ar
    76    38    40   ar
    77    38    71    1
    78    39    40   ar
    79    39    72    1
    80    41    42   ar
    81    41    73    1
    82    43    74    1
    83    43    75    1
    84    43    76    1
