@<TRIPOS>MOLECULE
IMPHY014289
 39 41 0 0 0
SMALL
GASTEIGER

@<TRIPOS>ATOM
      1 C           3.2666    0.2700    0.0000 C.3     1  UNL1       -0.0204
      2 C           3.6086   -0.6697    0.0000 C.3     1  UNL1       -0.0197
      3 C           5.2401    0.8883    0.0000 C.3     1  UNL1       -0.0222
      4 C           4.9813   -0.0776    0.0000 C.3     1  UNL1       -0.0137
      5 C           4.5035    1.8709    0.0000 C.3     1  UNL1       -0.0398
      6 C           2.2732    0.2328    0.0000 C.3     1  UNL1       -0.0466
      7 C           2.8237   -1.2796    0.0000 C.3     1  UNL1       -0.0465
      8 C           2.0000   -0.7230    0.0000 C.3     1  UNL1       -0.0520
      9 C           6.6718    0.6906    0.0000 C.3     1  UNL1       -0.0286
     10 C           2.9245    1.2097    0.0000 C.3     1  UNL1       -0.0585
     11 C           3.9506   -1.6094    0.0000 C.3     1  UNL1       -0.0585
     12 C           6.2530   -0.8723    0.0000 C.2     1  UNL1       -0.0729
     13 C           5.4989    1.8542    0.0000 C.3     1  UNL1       -0.0587
     14 C           7.0301   -0.2430    0.0000 C.2     1  UNL1       -0.0842
     15 C           6.3053   -1.8709    0.0000 C.3     1  UNL1       -0.0435
     16 H           4.7613   -0.8987    0.0000 H       1  UNL1        0.0351
     17 H           4.8213    2.4033    0.0000 H       1  UNL1        0.0277
     18 H           3.8904    1.9629    0.0000 H       1  UNL1        0.0277
     19 H           2.3152    0.8513    0.0000 H       1  UNL1        0.0271
     20 H           1.6624    0.3395    0.0000 H       1  UNL1        0.0271
     21 H           2.4244   -1.7540    0.0000 H       1  UNL1        0.0271
     22 H           3.2534   -1.7265    0.0000 H       1  UNL1        0.0271
     23 H           1.4251   -0.4910    0.0000 H       1  UNL1        0.0266
     24 H           1.7088   -1.2704    0.0000 H       1  UNL1        0.0266
     25 H           7.2796    0.8130    0.0000 H       1  UNL1        0.0313
     26 H           6.6527    1.3103    0.0000 H       1  UNL1        0.0313
     27 H           3.5072    1.4218    0.0000 H       1  UNL1        0.0235
     28 H           2.7125    1.7923    0.0000 H       1  UNL1        0.0235
     29 H           2.3419    0.9977    0.0000 H       1  UNL1        0.0235
     30 H           3.3680   -1.8214    0.0000 H       1  UNL1        0.0235
     31 H           4.1626   -2.1920    0.0000 H       1  UNL1        0.0235
     32 H           4.5332   -1.3973    0.0000 H       1  UNL1        0.0235
     33 H           6.0978    1.6938    0.0000 H       1  UNL1        0.0235
     34 H           5.6594    2.4531    0.0000 H       1  UNL1        0.0235
     35 H           4.9000    2.0147    0.0000 H       1  UNL1        0.0235
     36 H           7.6290   -0.4034    0.0000 H       1  UNL1        0.0572
     37 H           5.6861   -1.9034    0.0000 H       1  UNL1        0.0274
     38 H           6.3378   -2.4900    0.0000 H       1  UNL1        0.0274
     39 H           6.9244   -1.8385    0.0000 H       1  UNL1        0.0274
@<TRIPOS>BOND
     1     1     2    1
     2     1     3    1
     3     1     6    1
     4     1    10    1
     5     2     4    1
     6     2     7    1
     7     2    11    1
     8     3     5    1
     9     3     9    1
    10     3    13    1
    11     4     5    1
    12     4    12    1
    13     4    16    1
    14     5    17    1
    15     5    18    1
    16     6     8    1
    17     6    19    1
    18     6    20    1
    19     7     8    1
    20     7    21    1
    21     7    22    1
    22     8    23    1
    23     8    24    1
    24     9    14    1
    25     9    25    1
    26     9    26    1
    27    10    27    1
    28    10    28    1
    29    10    29    1
    30    11    30    1
    31    11    31    1
    32    11    32    1
    33    12    14    2
    34    12    15    1
    35    13    33    1
    36    13    34    1
    37    13    35    1
    38    14    36    1
    39    15    37    1
    40    15    38    1
    41    15    39    1
