@<TRIPOS>MOLECULE
IMPHY000175
 54 57 0 0 0
SMALL
GASTEIGER

@<TRIPOS>ATOM
      1 O           7.7517    1.9043    0.0000 O.3     1  UNL1       -0.3860
      2 O           2.6200   -2.6102    0.0000 O.3     1  UNL1       -0.3886
      3 O           8.7727    1.2852    0.0000 O.3     1  UNL1       -0.3922
      4 C           5.8238   -0.1281    0.0000 C.3     1  UNL1       -0.0229
      5 C           4.9553    0.3676    0.0000 C.3     1  UNL1       -0.0295
      6 C           4.0478   -0.1438    0.0000 C.3     1  UNL1       -0.0233
      7 C           5.7993    1.0533    0.0000 C.3     1  UNL1       -0.0415
      8 C           6.4754    2.0223    0.0000 C.3     1  UNL1       -0.0094
      9 C           4.0450   -1.1854    0.0000 C.3     1  UNL1       -0.0067
     10 C           6.7528    0.2419    0.0000 C.3     1  UNL1       -0.0156
     11 C           5.8450   -1.1695    0.0000 C.3     1  UNL1       -0.0466
     12 C           7.0428    1.1989    0.0000 C.3     1  UNL1        0.0923
     13 C           4.8013    1.3557    0.0000 C.3     1  UNL1       -0.0489
     14 C           4.9496   -1.7017    0.0000 C.3     1  UNL1       -0.0466
     15 C           5.4778    2.0921    0.0000 C.3     1  UNL1       -0.0472
     16 C           3.1182    0.4157    0.0000 C.3     1  UNL1       -0.0469
     17 C           3.1123   -1.7398    0.0000 C.3     1  UNL1        0.0666
     18 C           3.7083    0.7968    0.0000 C.3     1  UNL1       -0.0589
     19 C           2.1729   -0.1170    0.0000 C.3     1  UNL1       -0.0499
     20 C           2.1700   -1.2020    0.0000 C.3     1  UNL1       -0.0240
     21 C           7.9327    0.7427    0.0000 C.3     1  UNL1        0.0732
     22 C           3.6199   -2.6014    0.0000 C.3     1  UNL1       -0.0358
     23 H           4.2170    0.7889    0.0000 H       1  UNL1        0.0311
     24 H           5.4250    1.5476    0.0000 H       1  UNL1        0.0274
     25 H           5.2136    0.8498    0.0000 H       1  UNL1        0.0274
     26 H           6.7219    2.8358    0.0000 H       1  UNL1        0.0329
     27 H           4.0525   -2.0354    0.0000 H       1  UNL1        0.0334
     28 H           6.8483   -0.3707    0.0000 H       1  UNL1        0.0299
     29 H           7.3713    0.1986    0.0000 H       1  UNL1        0.0299
     30 H           6.0660   -1.7488    0.0000 H       1  UNL1        0.0271
     31 H           6.4536   -1.0510    0.0000 H       1  UNL1        0.0271
     32 H           4.4495    1.8662    0.0000 H       1  UNL1        0.0268
     33 H           4.2253    1.1263    0.0000 H       1  UNL1        0.0268
     34 H           4.5547   -2.1797    0.0000 H       1  UNL1        0.0269
     35 H           5.3530   -2.1726    0.0000 H       1  UNL1        0.0269
     36 H           5.6576    2.6854    0.0000 H       1  UNL1        0.0269
     37 H           4.9393    2.3994    0.0000 H       1  UNL1        0.0269
     38 H           3.5240    0.8843    0.0000 H       1  UNL1        0.0271
     39 H           2.7258    0.8957    0.0000 H       1  UNL1        0.0271
     40 H           4.2915    1.0073    0.0000 H       1  UNL1        0.0235
     41 H           3.4979    1.3800    0.0000 H       1  UNL1        0.0235
     42 H           3.1252    0.5864    0.0000 H       1  UNL1        0.0235
     43 H           1.9655    0.4673    0.0000 H       1  UNL1        0.0266
     44 H           1.5618   -0.2214    0.0000 H       1  UNL1        0.0266
     45 H           1.5594   -1.0942    0.0000 H       1  UNL1        0.0293
     46 H           1.9593   -1.7851    0.0000 H       1  UNL1        0.0293
     47 H           7.5583    0.2485    0.0000 H       1  UNL1        0.0586
     48 H           8.3544    0.2882    0.0000 H       1  UNL1        0.0586
     49 H           3.0858   -2.9161    0.0000 H       1  UNL1        0.0257
     50 H           3.9347   -3.1356    0.0000 H       1  UNL1        0.0257
     51 H           4.1541   -2.2866    0.0000 H       1  UNL1        0.0257
     52 H           7.5927    2.5035    0.0000 H       1  UNL1        0.2103
     53 H           2.0000   -2.6157    0.0000 H       1  UNL1        0.2102
     54 H           9.3244    1.0024    0.0000 H       1  UNL1        0.2095
@<TRIPOS>BOND
     1    12     1    1
     2     1    52    1
     3    17     2    1
     4     2    53    1
     5     3    21    1
     6     3    54    1
     7     4     5    1
     8     4     7    1
     9     4    10    1
    10     4    11    1
    11     5     6    1
    12     5    13    1
    13     5    23    1
    14     6     9    1
    15     6    16    1
    16     6    18    1
    17     7     8    1
    18     7    24    1
    19     7    25    1
    20     8    12    1
    21     8    15    1
    22     8    26    1
    23     9    14    1
    24     9    17    1
    25     9    27    1
    26    10    12    1
    27    10    28    1
    28    10    29    1
    29    11    14    1
    30    11    30    1
    31    11    31    1
    32    12    21    1
    33    13    15    1
    34    13    32    1
    35    13    33    1
    36    14    34    1
    37    14    35    1
    38    15    36    1
    39    15    37    1
    40    16    19    1
    41    16    38    1
    42    16    39    1
    43    17    20    1
    44    17    22    1
    45    18    40    1
    46    18    41    1
    47    18    42    1
    48    19    20    1
    49    19    43    1
    50    19    44    1
    51    20    45    1
    52    20    46    1
    53    21    47    1
    54    21    48    1
    55    22    49    1
    56    22    50    1
    57    22    51    1
