@<TRIPOS>MOLECULE
IMPHY015661
 18 17 0 0 0
SMALL
GASTEIGER

@<TRIPOS>ATOM
      1 O           5.4641    0.4400    0.0000 O.3     1  UNL1       -0.4618
      2 O           4.5981   -1.0600    0.0000 O.2     1  UNL1       -0.2456
      3 C           6.3301   -0.0600    0.0000 C.3     1  UNL1        0.0900
      4 C           7.1962    0.4400    0.0000 C.3     1  UNL1       -0.0306
      5 C           4.5981   -0.0600    0.0000 C.2     1  UNL1        0.3316
      6 C           3.7320    0.4400    0.0000 C.2     1  UNL1        0.0183
      7 C           2.8660   -0.0600    0.0000 C.2     1  UNL1       -0.0804
      8 C           2.0000    0.4400    0.0000 C.3     1  UNL1       -0.0463
      9 H           5.9316   -0.5349    0.0000 H       1  UNL1        0.0695
     10 H           6.7287   -0.5349    0.0000 H       1  UNL1        0.0695
     11 H           7.5062   -0.0969    0.0000 H       1  UNL1        0.0262
     12 H           7.7331    0.7500    0.0000 H       1  UNL1        0.0262
     13 H           6.8862    0.9769    0.0000 H       1  UNL1        0.0262
     14 H           3.7320    1.0600    0.0000 H       1  UNL1        0.0685
     15 H           2.8660   -0.6800    0.0000 H       1  UNL1        0.0571
     16 H           2.3100    0.9769    0.0000 H       1  UNL1        0.0272
     17 H           1.4631    0.7500    0.0000 H       1  UNL1        0.0272
     18 H           1.6900   -0.0969    0.0000 H       1  UNL1        0.0272
@<TRIPOS>BOND
     1     1     3    1
     2     1     5    1
     3     2     5    2
     4     3     4    1
     5     3     9    1
     6     3    10    1
     7     4    11    1
     8     4    12    1
     9     4    13    1
    10     5     6    1
    11     6     7    2
    12     6    14    1
    13     7     8    1
    14     7    15    1
    15     8    16    1
    16     8    17    1
    17     8    18    1
