@<TRIPOS>MOLECULE
IMPHY009215
 59 60 0 0 0
SMALL
GASTEIGER

@<TRIPOS>ATOM
      1 O           2.8660   -1.2784    0.0000 O.3     1  UNL1       -0.5055
      2 O           6.5677    0.0688    0.0000 O.3     1  UNL1       -0.4946
      3 O           6.3301   -1.2784    0.0000 O.3     1  UNL1       -0.5060
      4 O           3.3125    1.2536    0.0000 O.3     1  UNL1       -0.5055
      5 O           4.5981   -4.2784    0.0000 O.3     1  UNL1       -0.5056
      6 O           5.9662    3.4803    0.0000 O.3     1  UNL1       -0.5058
      7 O           2.0000   -2.7784    0.0000 O.2     1  UNL1       -0.2918
      8 O           3.0117    2.9594    0.0000 O.2     1  UNL1       -0.2918
      9 C           4.5981   -0.2785    0.0000 C.3     1  UNL1        0.0115
     10 C           4.5981   -1.2784    0.0000 C.ar    1  UNL1        0.0411
     11 C           4.9401    0.6612    0.0000 C.ar    1  UNL1        0.0410
     12 C           3.7320   -1.7784    0.0000 C.ar    1  UNL1        0.1378
     13 C           3.7320   -2.7784    0.0000 C.ar    1  UNL1        0.1008
     14 C           5.4641   -1.7784    0.0000 C.ar    1  UNL1        0.1302
     15 C           5.4641   -2.7784    0.0000 C.ar    1  UNL1        0.0335
     16 C           4.2973    1.4273    0.0000 C.ar    1  UNL1        0.1378
     17 C           4.5981   -3.2784    0.0000 C.ar    1  UNL1        0.1372
     18 C           4.6393    2.3670    0.0000 C.ar    1  UNL1        0.1005
     19 C           5.9249    0.8349    0.0000 C.ar    1  UNL1        0.1305
     20 C           2.8660   -3.2784    0.0000 C.2     1  UNL1        0.1702
     21 C           2.8660   -4.2784    0.0000 C.3     1  UNL1        0.0105
     22 C           5.6241    2.5406    0.0000 C.ar    1  UNL1        0.1343
     23 C           6.2669    1.7746    0.0000 C.ar    1  UNL1        0.0227
     24 C           3.9965    3.1330    0.0000 C.2     1  UNL1        0.1702
     25 C           4.3386    4.0727    0.0000 C.3     1  UNL1        0.0105
     26 C           6.3301   -3.2784    0.0000 C.3     1  UNL1       -0.0327
     27 C           2.0000   -4.7784    0.0000 C.3     1  UNL1       -0.0489
     28 C           3.6958    4.8388    0.0000 C.3     1  UNL1       -0.0489
     29 C           2.0000   -5.7784    0.0000 C.3     1  UNL1       -0.0649
     30 C           4.0378    5.7784    0.0000 C.3     1  UNL1       -0.0649
     31 C           7.5525    0.2425    0.0000 C.3     1  UNL1        0.0788
     32 H           4.1471    0.1470    0.0000 H       1  UNL1        0.0366
     33 H           5.2087   -0.3861    0.0000 H       1  UNL1        0.0366
     34 H           3.0781   -4.8611    0.0000 H       1  UNL1        0.0345
     35 H           3.4766   -4.1708    0.0000 H       1  UNL1        0.0345
     36 H           6.8775    1.8822    0.0000 H       1  UNL1        0.0691
     37 H           4.8755    3.7627    0.0000 H       1  UNL1        0.0345
     38 H           4.7371    4.5477    0.0000 H       1  UNL1        0.0345
     39 H           6.0201   -3.8154    0.0000 H       1  UNL1        0.0280
     40 H           6.8671   -3.5884    0.0000 H       1  UNL1        0.0280
     41 H           6.6401   -2.7415    0.0000 H       1  UNL1        0.0280
     42 H           1.7880   -4.1958    0.0000 H       1  UNL1        0.0267
     43 H           1.3894   -4.8861    0.0000 H       1  UNL1        0.0267
     44 H           3.1588    5.1488    0.0000 H       1  UNL1        0.0267
     45 H           3.2972    4.3638    0.0000 H       1  UNL1        0.0267
     46 H           2.8660   -0.6585    0.0000 H       1  UNL1        0.2922
     47 H           6.8671   -1.5884    0.0000 H       1  UNL1        0.2922
     48 H           2.9140    1.7286    0.0000 H       1  UNL1        0.2922
     49 H           1.3800   -5.7784    0.0000 H       1  UNL1        0.0230
     50 H           2.0000   -6.3985    0.0000 H       1  UNL1        0.0230
     51 H           2.6200   -5.7784    0.0000 H       1  UNL1        0.0230
     52 H           5.1350   -4.5884    0.0000 H       1  UNL1        0.2922
     53 H           4.6204    5.5664    0.0000 H       1  UNL1        0.0230
     54 H           4.2498    6.3611    0.0000 H       1  UNL1        0.0230
     55 H           3.4552    5.9905    0.0000 H       1  UNL1        0.0230
     56 H           6.5767    3.5880    0.0000 H       1  UNL1        0.2922
     57 H           7.6602   -0.3681    0.0000 H       1  UNL1        0.0660
     58 H           8.1631    0.3502    0.0000 H       1  UNL1        0.0660
     59 H           7.4448    0.8531    0.0000 H       1  UNL1        0.0660
@<TRIPOS>BOND
     1     1    12    1
     2     1    46    1
     3     2    19    1
     4     2    31    1
     5     3    14    1
     6     3    47    1
     7     4    16    1
     8     4    48    1
     9     5    17    1
    10     5    52    1
    11     6    22    1
    12     6    56    1
    13     7    20    2
    14     8    24    2
    15     9    10    1
    16     9    11    1
    17     9    32    1
    18     9    33    1
    19    10    12   ar
    20    10    14   ar
    21    11    16   ar
    22    11    19   ar
    23    12    13   ar
    24    13    17   ar
    25    13    20    1
    26    14    15   ar
    27    15    17   ar
    28    15    26    1
    29    16    18   ar
    30    18    22   ar
    31    18    24    1
    32    19    23   ar
    33    20    21    1
    34    21    27    1
    35    21    34    1
    36    21    35    1
    37    22    23   ar
    38    23    36    1
    39    24    25    1
    40    25    28    1
    41    25    37    1
    42    25    38    1
    43    26    39    1
    44    26    40    1
    45    26    41    1
    46    27    29    1
    47    27    42    1
    48    27    43    1
    49    28    30    1
    50    28    44    1
    51    28    45    1
    52    29    49    1
    53    29    50    1
    54    29    51    1
    55    30    53    1
    56    30    54    1
    57    30    55    1
    58    31    57    1
    59    31    58    1
    60    31    59    1
