@<TRIPOS>MOLECULE
IMPHY010277
 103 111 0 0 0
SMALL
GASTEIGER

@<TRIPOS>ATOM
      1 O          10.4105   -2.2077    0.0000 O.3     1  UNL1       -0.4609
      2 O          13.9809   -0.2408    0.0000 O.3     1  UNL1       -0.3426
      3 O           6.0022    2.3857    0.0000 O.3     1  UNL1       -0.3449
      4 O          14.9463   -2.0786    0.0000 O.3     1  UNL1       -0.3433
      5 O          15.8973    0.1308    0.0000 O.3     1  UNL1       -0.3571
      6 O           5.1304    0.8890    0.0000 O.3     1  UNL1       -0.3461
      7 O           8.6784   -2.2011    0.0000 O.2     1  UNL1       -0.2512
      8 O           4.2740    3.3923    0.0000 O.3     1  UNL1       -0.3841
      9 O           2.5381    2.3990    0.0000 O.3     1  UNL1       -0.3864
     10 O           2.5304    0.3990    0.0000 O.3     1  UNL1       -0.3869
     11 C           9.5323    0.3615    0.0000 C.3     1  UNL1       -0.0161
     12 C           8.6663    0.8615    0.0000 C.3     1  UNL1       -0.0192
     13 C           8.6660   -0.1389    0.0000 C.3     1  UNL1       -0.0400
     14 C          10.3984    0.8615    0.0000 C.3     1  UNL1       -0.0286
     15 C          11.3084    0.3547    0.0000 C.3     1  UNL1       -0.0173
     16 C           8.6663    1.8615    0.0000 C.3     1  UNL1       -0.0273
     17 C          11.3164   -0.6869    0.0000 C.3     1  UNL1        0.0161
     18 C           9.5163   -0.6800    0.0000 C.3     1  UNL1       -0.0087
     19 C           7.7724    0.3268    0.0000 C.3     1  UNL1       -0.0442
     20 C          10.3984    1.8615    0.0000 C.3     1  UNL1       -0.0489
     21 C          10.4143   -1.2078    0.0000 C.3     1  UNL1        0.1098
     22 C           9.5323    2.3615    0.0000 C.3     1  UNL1       -0.0488
     23 C           7.7724    2.3962    0.0000 C.3     1  UNL1       -0.0052
     24 C          12.3044   -0.9967    0.0000 C.3     1  UNL1       -0.0026
     25 C          12.2915    0.6797    0.0000 C.3     1  UNL1       -0.0199
     26 C          12.9058   -0.1539    0.0000 C.3     1  UNL1        0.0663
     27 C           6.8663    0.8407    0.0000 C.3     1  UNL1       -0.0255
     28 C           6.8663    1.8823    0.0000 C.3     1  UNL1        0.0672
     29 C          11.3006    1.3546    0.0000 C.3     1  UNL1       -0.0586
     30 C          11.3241   -1.6869    0.0000 C.3     1  UNL1       -0.0553
     31 C          12.7364   -1.9850    0.0000 C.3     1  UNL1       -0.0331
     32 C           7.2824    3.2679    0.0000 C.3     1  UNL1       -0.0572
     33 C           8.2823    3.2564    0.0000 C.3     1  UNL1       -0.0572
     34 C          14.4356   -1.2189    0.0000 C.3     1  UNL1        0.1997
     35 C          13.8091   -2.0969    0.0000 C.3     1  UNL1        0.0070
     36 C          15.0954   -0.4675    0.0000 C.3     1  UNL1        0.1439
     37 C          12.1462   -2.7923    0.0000 C.3     1  UNL1       -0.0619
     38 C          16.0140   -0.8628    0.0000 C.3     1  UNL1        0.1217
     39 C          15.9218   -1.8586    0.0000 C.3     1  UNL1        0.0824
     40 C           9.5425   -2.7044    0.0000 C.2     1  UNL1        0.3042
     41 C           5.1343    1.8890    0.0000 C.3     1  UNL1        0.1878
     42 C          16.9325   -1.2582    0.0000 C.3     1  UNL1       -0.0310
     43 C           9.5386   -3.7044    0.0000 C.3     1  UNL1        0.0332
     44 C           4.2702    2.3923    0.0000 C.3     1  UNL1        0.1341
     45 C           3.4022    1.8957    0.0000 C.3     1  UNL1        0.1137
     46 C           4.2625    0.3923    0.0000 C.3     1  UNL1        0.0792
     47 C           3.3984    0.8957    0.0000 C.3     1  UNL1        0.1069
     48 H           8.0555   -0.2465    0.0000 H       1  UNL1        0.0276
     49 H           8.8782   -0.7215    0.0000 H       1  UNL1        0.0276
     50 H          11.1312    1.2922    0.0000 H       1  UNL1        0.0312
     51 H           8.6729    2.7115    0.0000 H       1  UNL1        0.0312
     52 H           8.9071   -0.5645    0.0000 H       1  UNL1        0.0307
     53 H           9.2982   -1.2604    0.0000 H       1  UNL1        0.0307
     54 H           7.3787   -0.1522    0.0000 H       1  UNL1        0.0272
     55 H           8.1770   -0.1429    0.0000 H       1  UNL1        0.0272
     56 H          11.0089    1.7538    0.0000 H       1  UNL1        0.0268
     57 H          10.6104    2.4441    0.0000 H       1  UNL1        0.0268
     58 H           9.8756   -1.5146    0.0000 H       1  UNL1        0.0740
     59 H           9.9309    2.8365    0.0000 H       1  UNL1        0.0268
     60 H           9.1338    2.8365    0.0000 H       1  UNL1        0.0268
     61 H          11.7367   -1.6294    0.0000 H       1  UNL1        0.0335
     62 H          12.8265    0.9930    0.0000 H       1  UNL1        0.0296
     63 H          12.0361    1.2446    0.0000 H       1  UNL1        0.0296
     64 H          13.3194    0.5887    0.0000 H       1  UNL1        0.0600
     65 H           6.2554    0.9468    0.0000 H       1  UNL1        0.0290
     66 H           6.6572    0.2570    0.0000 H       1  UNL1        0.0290
     67 H           6.8699    2.5023    0.0000 H       1  UNL1        0.0602
     68 H          11.9206    1.3594    0.0000 H       1  UNL1        0.0235
     69 H          11.2959    1.9746    0.0000 H       1  UNL1        0.0235
     70 H          10.6807    1.3498    0.0000 H       1  UNL1        0.0235
     71 H          10.7041   -1.6917    0.0000 H       1  UNL1        0.0236
     72 H          11.3289   -2.3069    0.0000 H       1  UNL1        0.0236
     73 H          11.9441   -1.6821    0.0000 H       1  UNL1        0.0236
     74 H          12.1201   -1.9172    0.0000 H       1  UNL1        0.0303
     75 H           7.8229    3.5717    0.0000 H       1  UNL1        0.0236
     76 H           6.9786    3.8084    0.0000 H       1  UNL1        0.0236
     77 H           6.7419    2.9642    0.0000 H       1  UNL1        0.0236
     78 H           8.8157    2.9402    0.0000 H       1  UNL1        0.0236
     79 H           8.5985    3.7897    0.0000 H       1  UNL1        0.0236
     80 H           7.7490    3.5725    0.0000 H       1  UNL1        0.0236
     81 H          13.6403   -2.6934    0.0000 H       1  UNL1        0.0321
     82 H          14.3680   -2.3653    0.0000 H       1  UNL1        0.0321
     83 H          14.5188    0.1570    0.0000 H       1  UNL1        0.0680
     84 H          11.6457   -2.4264    0.0000 H       1  UNL1        0.0233
     85 H          11.7802   -3.2928    0.0000 H       1  UNL1        0.0233
     86 H          12.6467   -3.1582    0.0000 H       1  UNL1        0.0233
     87 H          15.9943   -2.4743    0.0000 H       1  UNL1        0.0590
     88 H          16.5417   -1.8509    0.0000 H       1  UNL1        0.0590
     89 H           5.1367    2.5090    0.0000 H       1  UNL1        0.0937
     90 H          16.6874   -1.8277    0.0000 H       1  UNL1        0.0259
     91 H          17.5020   -1.5033    0.0000 H       1  UNL1        0.0259
     92 H          17.1776   -0.6887    0.0000 H       1  UNL1        0.0259
     93 H           8.9187   -3.7020    0.0000 H       1  UNL1        0.0342
     94 H           9.5363   -4.3244    0.0000 H       1  UNL1        0.0342
     95 H          10.1586   -3.7068    0.0000 H       1  UNL1        0.0342
     96 H           3.7344    2.7044    0.0000 H       1  UNL1        0.0671
     97 H           3.9663    2.5157    0.0000 H       1  UNL1        0.0647
     98 H           3.8621   -0.0811    0.0000 H       1  UNL1        0.0587
     99 H           4.6592   -0.0841    0.0000 H       1  UNL1        0.0587
    100 H           2.8626    1.2078    0.0000 H       1  UNL1        0.0643
    101 H           3.7383    3.7044    0.0000 H       1  UNL1        0.2101
    102 H           2.0000    2.0911    0.0000 H       1  UNL1        0.2100
    103 H           2.5280   -0.2210    0.0000 H       1  UNL1        0.2100
@<TRIPOS>BOND
     1    21     1    1
     2     1    40    1
     3     2    26    1
     4    34     2    1
     5    28     3    1
     6    41     3    1
     7     4    34    1
     8     4    39    1
     9     5    36    1
    10     5    38    1
    11     6    41    1
    12     6    46    1
    13     7    40    2
    14    44     8    1
    15     8   101    1
    16    45     9    1
    17     9   102    1
    18    47    10    1
    19    10   103    1
    20    11    12    1
    21    11    13    1
    22    11    14    1
    23    11    18    1
    24    12    13    1
    25    12    16    1
    26    12    19    1
    27    13    48    1
    28    13    49    1
    29    14    15    1
    30    14    20    1
    31    14    50    1
    32    15    17    1
    33    15    25    1
    34    15    29    1
    35    16    22    1
    36    16    23    1
    37    16    51    1
    38    17    21    1
    39    17    24    1
    40    17    30    1
    41    18    21    1
    42    18    52    1
    43    18    53    1
    44    19    27    1
    45    19    54    1
    46    19    55    1
    47    20    22    1
    48    20    56    1
    49    20    57    1
    50    21    58    1
    51    22    59    1
    52    22    60    1
    53    23    28    1
    54    23    32    1
    55    23    33    1
    56    24    26    1
    57    24    31    1
    58    24    61    1
    59    25    26    1
    60    25    62    1
    61    25    63    1
    62    26    64    1
    63    27    28    1
    64    27    65    1
    65    27    66    1
    66    28    67    1
    67    29    68    1
    68    29    69    1
    69    29    70    1
    70    30    71    1
    71    30    72    1
    72    30    73    1
    73    31    35    1
    74    31    37    1
    75    31    74    1
    76    32    75    1
    77    32    76    1
    78    32    77    1
    79    33    78    1
    80    33    79    1
    81    33    80    1
    82    34    35    1
    83    34    36    1
    84    35    81    1
    85    35    82    1
    86    36    38    1
    87    36    83    1
    88    37    84    1
    89    37    85    1
    90    37    86    1
    91    38    39    1
    92    38    42    1
    93    39    87    1
    94    39    88    1
    95    40    43    1
    96    41    44    1
    97    41    89    1
    98    42    90    1
    99    42    91    1
   100    42    92    1
   101    43    93    1
   102    43    94    1
   103    43    95    1
   104    44    45    1
   105    44    96    1
   106    45    47    1
   107    45    97    1
   108    46    47    1
   109    46    98    1
   110    46    99    1
   111    47   100    1
