@<TRIPOS>MOLECULE
IMPHY012929
 47 46 0 0 0
SMALL
GASTEIGER

@<TRIPOS>ATOM
      1 O          11.1972    0.2500    0.0000 O.2     1  UNL1       -0.2708
      2 N          12.0632    1.7500    0.0000 N.am    1  UNL1       -0.3116
      3 C          13.7953    1.7500    0.0000 C.3     1  UNL1       -0.0311
      4 C          12.9292    1.2500    0.0000 C.3     1  UNL1        0.0142
      5 C          14.6613    1.2500    0.0000 C.3     1  UNL1       -0.0612
      6 C          13.7953    2.7500    0.0000 C.3     1  UNL1       -0.0612
      7 C          11.1972    1.2500    0.0000 C.2     1  UNL1        0.2369
      8 C           6.8671    1.7500    0.0000 C.3     1  UNL1       -0.0310
      9 C           6.0010    1.2500    0.0000 C.3     1  UNL1       -0.0310
     10 C          10.3312    1.7500    0.0000 C.2     1  UNL1        0.0001
     11 C           7.7331    1.2500    0.0000 C.2     1  UNL1       -0.0837
     12 C           9.4651    1.2500    0.0000 C.2     1  UNL1       -0.0571
     13 C           8.5991    1.7500    0.0000 C.2     1  UNL1       -0.0655
     14 C           5.1350    1.7500    0.0000 C.2     1  UNL1       -0.0837
     15 C           4.2690    1.2500    0.0000 C.2     1  UNL1       -0.0657
     16 C           4.2690    0.2500    0.0000 C.2     1  UNL1       -0.0621
     17 C           3.4030   -0.2500    0.0000 C.2     1  UNL1       -0.0621
     18 C           3.4030   -1.2500    0.0000 C.2     1  UNL1       -0.0659
     19 C           2.5369   -1.7500    0.0000 C.2     1  UNL1       -0.0871
     20 C           2.5369   -2.7500    0.0000 C.3     1  UNL1       -0.0465
     21 H          14.3322    2.0600    0.0000 H       1  UNL1        0.0311
     22 H          12.5307    0.7751    0.0000 H       1  UNL1        0.0465
     23 H          13.3278    0.7751    0.0000 H       1  UNL1        0.0465
     24 H          14.3513    0.7131    0.0000 H       1  UNL1        0.0233
     25 H          15.1982    0.9400    0.0000 H       1  UNL1        0.0233
     26 H          14.9713    1.7869    0.0000 H       1  UNL1        0.0233
     27 H          14.4153    2.7500    0.0000 H       1  UNL1        0.0233
     28 H          13.7953    3.3700    0.0000 H       1  UNL1        0.0233
     29 H          13.1753    2.7500    0.0000 H       1  UNL1        0.0233
     30 H          12.0632    2.3700    0.0000 H       1  UNL1        0.1490
     31 H           7.2656    2.2250    0.0000 H       1  UNL1        0.0310
     32 H           6.4685    2.2250    0.0000 H       1  UNL1        0.0310
     33 H           5.6025    0.7751    0.0000 H       1  UNL1        0.0310
     34 H           6.3996    0.7751    0.0000 H       1  UNL1        0.0310
     35 H          10.3312    2.3700    0.0000 H       1  UNL1        0.0669
     36 H           7.7331    0.6300    0.0000 H       1  UNL1        0.0572
     37 H           9.4651    0.6300    0.0000 H       1  UNL1        0.0619
     38 H           8.5991    2.3700    0.0000 H       1  UNL1        0.0614
     39 H           5.1350    2.3700    0.0000 H       1  UNL1        0.0572
     40 H           3.7320    1.5600    0.0000 H       1  UNL1        0.0614
     41 H           4.8059   -0.0600    0.0000 H       1  UNL1        0.0617
     42 H           2.8660    0.0600    0.0000 H       1  UNL1        0.0617
     43 H           3.9399   -1.5600    0.0000 H       1  UNL1        0.0614
     44 H           2.0000   -1.4400    0.0000 H       1  UNL1        0.0569
     45 H           1.9169   -2.7500    0.0000 H       1  UNL1        0.0272
     46 H           2.5369   -3.3700    0.0000 H       1  UNL1        0.0272
     47 H           3.1569   -2.7500    0.0000 H       1  UNL1        0.0272
@<TRIPOS>BOND
     1     1     7    2
     2     2     4    1
     3     2     7   am
     4     2    30    1
     5     3     4    1
     6     3     5    1
     7     3     6    1
     8     3    21    1
     9     4    22    1
    10     4    23    1
    11     5    24    1
    12     5    25    1
    13     5    26    1
    14     6    27    1
    15     6    28    1
    16     6    29    1
    17     7    10    1
    18     8     9    1
    19     8    11    1
    20     8    31    1
    21     8    32    1
    22     9    14    1
    23     9    33    1
    24     9    34    1
    25    10    12    2
    26    10    35    1
    27    11    13    2
    28    11    36    1
    29    12    13    1
    30    12    37    1
    31    13    38    1
    32    14    15    2
    33    14    39    1
    34    15    16    1
    35    15    40    1
    36    16    17    2
    37    16    41    1
    38    17    18    1
    39    17    42    1
    40    18    19    2
    41    18    43    1
    42    19    20    1
    43    19    44    1
    44    20    45    1
    45    20    46    1
    46    20    47    1
