@<TRIPOS>MOLECULE
IMPHY007816
 53 57 0 0 0
SMALL
GASTEIGER

@<TRIPOS>ATOM
      1 O           5.5829   -1.1439    0.0000 O.3     1  UNL1       -0.3912
      2 O           3.8869    3.6295    0.0000 O.3     1  UNL1       -0.4802
      3 O           5.3768    2.7462    0.0000 O.2     1  UNL1       -0.2504
      4 C           4.3508   -2.6828    0.0000 C.3     1  UNL1       -0.0253
      5 C           3.3508   -2.6828    0.0000 C.3     1  UNL1       -0.0314
      6 C           3.8508   -3.5493    0.0000 C.3     1  UNL1       -0.0317
      7 C           3.8508   -1.1439    0.0000 C.3     1  UNL1        0.0008
      8 C           2.9848   -0.6439    0.0000 C.3     1  UNL1       -0.0270
      9 C           4.6599   -1.7317    0.0000 C.3     1  UNL1       -0.0388
     10 C           3.0418   -1.7317    0.0000 C.3     1  UNL1       -0.0411
     11 C           2.5791   -2.3466    0.0000 C.3     1  UNL1       -0.0455
     12 C           2.9848    0.3561    0.0000 C.3     1  UNL1       -0.0247
     13 C           4.7169   -0.6439    0.0000 C.3     1  UNL1        0.0614
     14 C           5.3508   -2.6828    0.0000 C.3     1  UNL1       -0.0590
     15 C           3.8508    0.8561    0.0000 C.3     1  UNL1       -0.0175
     16 C           4.7169    0.3561    0.0000 C.3     1  UNL1       -0.0220
     17 C           2.0748    0.8629    0.0000 C.3     1  UNL1       -0.0470
     18 C           3.8669    1.8976    0.0000 C.3     1  UNL1        0.0682
     19 C           2.0000    0.1824    0.0000 C.3     1  UNL1       -0.0590
     20 C           2.0668    1.9045    0.0000 C.3     1  UNL1       -0.0515
     21 C           2.9689    2.4253    0.0000 C.3     1  UNL1       -0.0372
     22 C           4.8668    1.8860    0.0000 C.3     1  UNL1       -0.0491
     23 C           4.3769    2.7578    0.0000 C.2     1  UNL1        0.3110
     24 H           2.6146   -3.1077    0.0000 H       1  UNL1        0.0309
     25 H           3.9736   -4.3904    0.0000 H       1  UNL1        0.0309
     26 H           2.1576   -0.8395    0.0000 H       1  UNL1        0.0312
     27 H           5.2262   -1.9839    0.0000 H       1  UNL1        0.0277
     28 H           4.9699   -1.1948    0.0000 H       1  UNL1        0.0277
     29 H           2.7318   -1.1948    0.0000 H       1  UNL1        0.0274
     30 H           2.4754   -1.9839    0.0000 H       1  UNL1        0.0274
     31 H           2.0101   -2.1004    0.0000 H       1  UNL1        0.0271
     32 H           2.2378   -2.8642    0.0000 H       1  UNL1        0.0271
     33 H           4.7169   -1.2639    0.0000 H       1  UNL1        0.0599
     34 H           5.3508   -3.3028    0.0000 H       1  UNL1        0.0235
     35 H           5.9708   -2.6828    0.0000 H       1  UNL1        0.0235
     36 H           5.3508   -2.0628    0.0000 H       1  UNL1        0.0235
     37 H           4.5902    1.2754    0.0000 H       1  UNL1        0.0317
     38 H           5.3274    0.2484    0.0000 H       1  UNL1        0.0293
     39 H           4.9289    0.9387    0.0000 H       1  UNL1        0.0293
     40 H           1.4632    0.9643    0.0000 H       1  UNL1        0.0271
     41 H           1.8703    0.2776    0.0000 H       1  UNL1        0.0271
     42 H           1.8924    0.7930    0.0000 H       1  UNL1        0.0235
     43 H           1.3894    0.0748    0.0000 H       1  UNL1        0.0235
     44 H           2.1076   -0.4281    0.0000 H       1  UNL1        0.0235
     45 H           1.8532    2.4866    0.0000 H       1  UNL1        0.0266
     46 H           1.4568    1.7937    0.0000 H       1  UNL1        0.0266
     47 H           3.3698    2.8982    0.0000 H       1  UNL1        0.0276
     48 H           2.5716    2.9013    0.0000 H       1  UNL1        0.0276
     49 H           6.1198   -0.8339    0.0000 H       1  UNL1        0.2098
     50 H           4.8597    1.2660    0.0000 H       1  UNL1        0.0240
     51 H           5.4868    1.8788    0.0000 H       1  UNL1        0.0240
     52 H           4.8740    2.5060    0.0000 H       1  UNL1        0.0240
     53 H           4.2031    4.1628    0.0000 H       1  UNL1        0.2951
@<TRIPOS>BOND
     1    13     1    1
     2     1    49    1
     3     2    23    1
     4     2    53    1
     5     3    23    2
     6     4     5    1
     7     4     6    1
     8     4     9    1
     9     4    14    1
    10     5     6    1
    11     5    10    1
    12     5    24    1
    13     6    11    1
    14     6    25    1
    15     7     8    1
    16     7     9    1
    17     7    10    1
    18     7    13    1
    19     8    11    1
    20     8    12    1
    21     8    26    1
    22     9    27    1
    23     9    28    1
    24    10    29    1
    25    10    30    1
    26    11    31    1
    27    11    32    1
    28    12    15    1
    29    12    17    1
    30    12    19    1
    31    13    16    1
    32    13    33    1
    33    14    34    1
    34    14    35    1
    35    14    36    1
    36    15    16    1
    37    15    18    1
    38    15    37    1
    39    16    38    1
    40    16    39    1
    41    17    20    1
    42    17    40    1
    43    17    41    1
    44    18    21    1
    45    18    22    1
    46    18    23    1
    47    19    42    1
    48    19    43    1
    49    19    44    1
    50    20    21    1
    51    20    45    1
    52    20    46    1
    53    21    47    1
    54    21    48    1
    55    22    50    1
    56    22    51    1
    57    22    52    1
