@<TRIPOS>MOLECULE
IMPHY000013
 55 57 0 0 0
SMALL
GASTEIGER

@<TRIPOS>ATOM
      1 O           7.2583   -0.0137    0.0000 O.2     1  UNL1       -0.4545
      2 O           3.7282   -0.0379    0.0000 O.3     1  UNL1       -0.5064
      3 O           7.2583    2.9863    0.0000 O.2     1  UNL1       -0.2870
      4 O          11.5884   -1.5137    0.0000 O.3     1  UNL1       -0.5065
      5 C           6.3923    1.4863    0.0000 C.ar    1  UNL1        0.0645
      6 C           4.5923    1.5071    0.0000 C.ar    1  UNL1       -0.0013
      7 C           6.3923    0.4863    0.0000 C.ar    1  UNL1        0.1427
      8 C           8.1243    0.4863    0.0000 C.ar    1  UNL1        0.1392
      9 C           8.9904   -0.0137    0.0000 C.ar    1  UNL1        0.0179
     10 C           5.4983    2.0209    0.0000 C.ar    1  UNL1       -0.0404
     11 C           3.7282    2.0104    0.0000 C.3     1  UNL1       -0.0058
     12 C           9.8564   -1.5137    0.0000 C.ar    1  UNL1       -0.0016
     13 C           4.5923    0.4654    0.0000 C.ar    1  UNL1        0.1238
     14 C           5.4983   -0.0484    0.0000 C.ar    1  UNL1        0.0231
     15 C           7.2583    1.9863    0.0000 C.ar    1  UNL1        0.1931
     16 C           8.9904   -1.0137    0.0000 C.ar    1  UNL1       -0.0441
     17 C           8.1243    1.4863    0.0000 C.ar    1  UNL1        0.0287
     18 C           9.8564   -2.5137    0.0000 C.3     1  UNL1       -0.0058
     19 C           9.8564    0.4863    0.0000 C.ar    1  UNL1       -0.0476
     20 C          10.7224   -1.0137    0.0000 C.ar    1  UNL1        0.1203
     21 C           3.7320    3.0104    0.0000 C.2     1  UNL1       -0.0809
     22 C          10.7224   -0.0137    0.0000 C.ar    1  UNL1       -0.0192
     23 C           8.9904   -3.0137    0.0000 C.2     1  UNL1       -0.0809
     24 C           2.8680    3.5137    0.0000 C.2     1  UNL1       -0.0793
     25 C           8.9904   -4.0137    0.0000 C.2     1  UNL1       -0.0793
     26 C           2.8718    4.5137    0.0000 C.3     1  UNL1       -0.0440
     27 C           2.0000    3.0171    0.0000 C.3     1  UNL1       -0.0440
     28 C           8.1243   -4.5137    0.0000 C.3     1  UNL1       -0.0440
     29 C           9.8564   -4.5137    0.0000 C.3     1  UNL1       -0.0440
     30 H           5.5055    2.6409    0.0000 H       1  UNL1        0.0630
     31 H           3.1180    2.1204    0.0000 H       1  UNL1        0.0357
     32 H           3.5139    1.4286    0.0000 H       1  UNL1        0.0357
     33 H           5.5055   -0.6684    0.0000 H       1  UNL1        0.0691
     34 H           8.4534   -1.3237    0.0000 H       1  UNL1        0.0629
     35 H           8.6613    1.7963    0.0000 H       1  UNL1        0.0693
     36 H          10.0684   -3.0963    0.0000 H       1  UNL1        0.0357
     37 H          10.4670   -2.4061    0.0000 H       1  UNL1        0.0357
     38 H           9.8564    1.1063    0.0000 H       1  UNL1        0.0626
     39 H           4.2702    3.3183    0.0000 H       1  UNL1        0.0575
     40 H          11.2593    0.2963    0.0000 H       1  UNL1        0.0654
     41 H           8.4534   -2.7037    0.0000 H       1  UNL1        0.0575
     42 H           3.7306   -0.6579    0.0000 H       1  UNL1        0.2921
     43 H           1.6921    3.5552    0.0000 H       1  UNL1        0.0274
     44 H           1.4619    2.7092    0.0000 H       1  UNL1        0.0274
     45 H           2.3079    2.4790    0.0000 H       1  UNL1        0.0274
     46 H           3.4918    4.5113    0.0000 H       1  UNL1        0.0274
     47 H           2.8742    5.1337    0.0000 H       1  UNL1        0.0274
     48 H           2.2518    4.5161    0.0000 H       1  UNL1        0.0274
     49 H           9.5464   -5.0507    0.0000 H       1  UNL1        0.0274
     50 H          10.3933   -4.8237    0.0000 H       1  UNL1        0.0274
     51 H          10.1664   -3.9768    0.0000 H       1  UNL1        0.0274
     52 H           7.8143   -3.9768    0.0000 H       1  UNL1        0.0274
     53 H           7.5874   -4.8237    0.0000 H       1  UNL1        0.0274
     54 H           8.4343   -5.0507    0.0000 H       1  UNL1        0.0274
     55 H          12.1254   -1.2037    0.0000 H       1  UNL1        0.2921
@<TRIPOS>BOND
     1     1     7   ar
     2     1     8   ar
     3     2    13    1
     4     2    42    1
     5     3    15    2
     6     4    20    1
     7     4    55    1
     8     5     7   ar
     9     5    10   ar
    10     5    15   ar
    11     6    10   ar
    12     6    11    1
    13     6    13   ar
    14     7    14   ar
    15     8     9    1
    16     8    17   ar
    17     9    16   ar
    18     9    19   ar
    19    10    30    1
    20    11    21    1
    21    11    31    1
    22    11    32    1
    23    12    16   ar
    24    12    18    1
    25    12    20   ar
    26    13    14   ar
    27    14    33    1
    28    15    17   ar
    29    16    34    1
    30    17    35    1
    31    18    23    1
    32    18    36    1
    33    18    37    1
    34    19    22   ar
    35    19    38    1
    36    20    22   ar
    37    21    24    2
    38    21    39    1
    39    22    40    1
    40    23    25    2
    41    23    41    1
    42    24    26    1
    43    24    27    1
    44    25    28    1
    45    25    29    1
    46    26    46    1
    47    26    47    1
    48    26    48    1
    49    27    43    1
    50    27    44    1
    51    27    45    1
    52    28    52    1
    53    28    53    1
    54    28    54    1
    55    29    49    1
    56    29    50    1
    57    29    51    1
