@<TRIPOS>MOLECULE
IMPHY001883
 38 43 0 0 0
SMALL
GASTEIGER

@<TRIPOS>ATOM
      1 O           5.4044   -1.6993    0.0000 O.3     1  UNL1       -0.4520
      2 O           3.9591   -2.5487    0.0000 O.3     1  UNL1       -0.4526
      3 O           8.2670    1.8694    0.0000 O.3     1  UNL1       -0.4526
      4 O           8.2670    0.1929    0.0000 O.3     1  UNL1       -0.4526
      5 N           2.8911    2.0281    0.0000 N.3     1  UNL1       -0.3087
      6 C           3.7493    1.5312    0.0000 C.3     1  UNL1        0.0378
      7 C           3.7493    0.5312    0.0000 C.ar    1  UNL1       -0.0155
      8 C           4.6153    2.0312    0.0000 C.3     1  UNL1       -0.0074
      9 C           4.6153    0.0312    0.0000 C.ar    1  UNL1        0.0329
     10 C           2.8393    0.0243    0.0000 C.ar    1  UNL1       -0.0372
     11 C           5.4814    1.5312    0.0000 C.ar    1  UNL1       -0.0341
     12 C           5.4814    0.5312    0.0000 C.ar    1  UNL1       -0.0070
     13 C           2.0000    0.5525    0.0000 C.3     1  UNL1       -0.0146
     14 C           2.0256    1.5439    0.0000 C.3     1  UNL1        0.0004
     15 C           4.6314   -1.0104    0.0000 C.ar    1  UNL1        0.1742
     16 C           2.8313   -1.0173    0.0000 C.ar    1  UNL1       -0.0126
     17 C           3.7334   -1.5381    0.0000 C.ar    1  UNL1        0.1671
     18 C           6.3753    2.0658    0.0000 C.ar    1  UNL1       -0.0123
     19 C           6.3753   -0.0035    0.0000 C.ar    1  UNL1       -0.0080
     20 C           7.2814    1.5520    0.0000 C.ar    1  UNL1        0.1665
     21 C           7.2814    0.5103    0.0000 C.ar    1  UNL1        0.1668
     22 C           4.9898   -2.6481    0.0000 C.3     1  UNL1        0.2333
     23 C           8.8749    1.0312    0.0000 C.3     1  UNL1        0.2332
     24 H           3.7497    2.1512    0.0000 H       1  UNL1        0.0513
     25 H           5.0139    2.5061    0.0000 H       1  UNL1        0.0332
     26 H           4.2168    2.5061    0.0000 H       1  UNL1        0.0332
     27 H           1.3929    0.6784    0.0000 H       1  UNL1        0.0326
     28 H           1.7682   -0.0225    0.0000 H       1  UNL1        0.0326
     29 H           2.8957    2.6481    0.0000 H       1  UNL1        0.1225
     30 H           1.8239    2.1302    0.0000 H       1  UNL1        0.0427
     31 H           1.4128    1.4495    0.0000 H       1  UNL1        0.0427
     32 H           2.2932   -1.3252    0.0000 H       1  UNL1        0.0658
     33 H           6.3681    2.6858    0.0000 H       1  UNL1        0.0658
     34 H           6.3681   -0.6235    0.0000 H       1  UNL1        0.0661
     35 H           4.8657   -3.2555    0.0000 H       1  UNL1        0.1166
     36 H           5.5808   -2.8353    0.0000 H       1  UNL1        0.1166
     37 H           9.3358    0.6164    0.0000 H       1  UNL1        0.1166
     38 H           9.3358    1.4459    0.0000 H       1  UNL1        0.1166
@<TRIPOS>BOND
     1     1    15    1
     2     1    22    1
     3     2    17    1
     4     2    22    1
     5     3    20    1
     6     3    23    1
     7     4    21    1
     8     4    23    1
     9     5     6    1
    10     5    14    1
    11     5    29    1
    12     6     7    1
    13     6     8    1
    14     6    24    1
    15     7     9   ar
    16     7    10   ar
    17     8    11    1
    18     8    25    1
    19     8    26    1
    20     9    12    1
    21     9    15   ar
    22    10    13    1
    23    10    16   ar
    24    11    12   ar
    25    11    18   ar
    26    12    19   ar
    27    13    14    1
    28    13    27    1
    29    13    28    1
    30    14    30    1
    31    14    31    1
    32    15    17   ar
    33    16    17   ar
    34    16    32    1
    35    18    20   ar
    36    18    33    1
    37    19    21   ar
    38    19    34    1
    39    20    21   ar
    40    22    35    1
    41    22    36    1
    42    23    37    1
    43    23    38    1
