@<TRIPOS>MOLECULE
IMPHY012939
 93 96 0 0 0
SMALL
GASTEIGER

@<TRIPOS>ATOM
      1 O           6.8671    3.3851    0.0000 O.3     1  UNL1       -0.3093
      2 O           6.0010    4.8851    0.0000 O.2     1  UNL1       -0.4699
      3 O           5.1350    3.3851    0.0000 O.3     1  UNL1       -0.3404
      4 O           6.8671    1.3851    0.0000 O.3     1  UNL1       -0.3378
      5 O          10.2629    5.3851    0.0000 O.3     1  UNL1       -0.3875
      6 O           6.0580   -0.2027    0.0000 O.3     1  UNL1       -0.3456
      7 O           5.1350    0.3851    0.0000 O.3     1  UNL1       -0.3864
      8 O           3.4030    1.3851    0.0000 O.3     1  UNL1       -0.3865
      9 O           7.3671   -2.1538    0.0000 O.3     1  UNL1       -0.3801
     10 O           8.6271    0.1063    0.0000 O.3     1  UNL1       -0.3837
     11 O           8.5260   -2.4409    0.0000 O.3     1  UNL1       -0.4583
     12 O           6.0010    7.8851    0.0000 O.3     1  UNL1       -0.4773
     13 O           2.5369    2.8851    0.0000 O.3     1  UNL1       -0.3924
     14 O           7.7331    7.8851    0.0000 O.2     1  UNL1       -0.2454
     15 O          10.2202   -2.0808    0.0000 O.2     1  UNL1       -0.2453
     16 O          14.1130   -7.8986    0.0000 O.3     1  UNL1       -0.3950
     17 C           7.7331    4.8851    0.0000 C.3     1  UNL1        0.0520
     18 C           7.7331    5.8851    0.0000 C.3     1  UNL1        0.0087
     19 C           8.6793    6.1898    0.0000 C.3     1  UNL1       -0.0151
     20 C           6.8671    4.3851    0.0000 C.3     1  UNL1        0.2106
     21 C           9.2629    5.3851    0.0000 C.3     1  UNL1        0.0771
     22 C           8.6793    4.5803    0.0000 C.2     1  UNL1       -0.0389
     23 C           6.0010    1.8851    0.0000 C.3     1  UNL1        0.1408
     24 C           6.0010    2.8851    0.0000 C.3     1  UNL1        0.1922
     25 C           6.8671    6.3851    0.0000 C.2     1  UNL1        0.0745
     26 C           5.1350    1.3851    0.0000 C.3     1  UNL1        0.1144
     27 C           4.2690    1.8851    0.0000 C.3     1  UNL1        0.1119
     28 C           4.2690    2.8851    0.0000 C.3     1  UNL1        0.1130
     29 C           6.8671    0.3851    0.0000 C.3     1  UNL1        0.1885
     30 C           7.3671   -1.1538    0.0000 C.3     1  UNL1        0.1534
     31 C           7.6761   -0.2027    0.0000 C.3     1  UNL1        0.1398
     32 C           6.0010    5.8851    0.0000 C.2     1  UNL1        0.0981
     33 C           8.9900    3.6298    0.0000 C.2     1  UNL1       -0.0965
     34 C           6.3671   -1.1538    0.0000 C.3     1  UNL1        0.0853
     35 C           6.8671    7.3851    0.0000 C.2     1  UNL1        0.3360
     36 C           3.4030    3.3851    0.0000 C.3     1  UNL1        0.0730
     37 C           8.3181   -1.4628    0.0000 C.3     1  UNL1        0.1262
     38 C           9.4771   -2.7500    0.0000 C.2     1  UNL1        0.3347
     39 C           9.6850   -3.7281    0.0000 C.2     1  UNL1        0.0296
     40 C          10.6361   -4.0371    0.0000 C.2     1  UNL1       -0.0743
     41 C          12.0029   -6.3024    0.0000 C.3     1  UNL1       -0.0415
     42 C          11.7950   -5.3243    0.0000 C.3     1  UNL1       -0.0469
     43 C          10.8440   -5.0153    0.0000 C.3     1  UNL1       -0.0338
     44 C           8.9418   -4.3972    0.0000 C.3     1  UNL1       -0.0332
     45 C          12.9540   -6.6114    0.0000 C.3     1  UNL1       -0.0271
     46 C          11.2598   -6.9716    0.0000 C.3     1  UNL1       -0.0623
     47 C          13.1619   -7.5896    0.0000 C.3     1  UNL1        0.0444
     48 H           7.7987    4.2686    0.0000 H       1  UNL1        0.0413
     49 H           7.7987    6.5016    0.0000 H       1  UNL1        0.0361
     50 H           9.2167    6.4990    0.0000 H       1  UNL1        0.0299
     51 H           8.4283    6.7567    0.0000 H       1  UNL1        0.0299
     52 H           7.4040    4.0751    0.0000 H       1  UNL1        0.1062
     53 H           9.5446    4.8328    0.0000 H       1  UNL1        0.0640
     54 H           6.0010    1.2651    0.0000 H       1  UNL1        0.0675
     55 H           6.0010    3.5051    0.0000 H       1  UNL1        0.0939
     56 H           4.5981    1.0751    0.0000 H       1  UNL1        0.0648
     57 H           4.2690    1.2651    0.0000 H       1  UNL1        0.0647
     58 H           4.2690    3.5051    0.0000 H       1  UNL1        0.0647
     59 H           7.4195    0.6665    0.0000 H       1  UNL1        0.0938
     60 H           7.7731    0.4096    0.0000 H       1  UNL1        0.0675
     61 H           5.4641    6.1951    0.0000 H       1  UNL1        0.1029
     62 H           8.5759    3.1684    0.0000 H       1  UNL1        0.0535
     63 H           9.5966    3.5020    0.0000 H       1  UNL1        0.0535
     64 H           5.7606   -1.2827    0.0000 H       1  UNL1        0.0591
     65 H           6.4319   -1.7704    0.0000 H       1  UNL1        0.0591
     66 H          10.5729    5.9220    0.0000 H       1  UNL1        0.2102
     67 H           3.8015    3.8600    0.0000 H       1  UNL1        0.0584
     68 H           3.0044    3.8600    0.0000 H       1  UNL1        0.0584
     69 H           8.9377   -1.4412    0.0000 H       1  UNL1        0.0728
     70 H           8.4044   -0.8488    0.0000 H       1  UNL1        0.0728
     71 H           4.5981    0.0751    0.0000 H       1  UNL1        0.2100
     72 H           3.4030    0.7651    0.0000 H       1  UNL1        0.2100
     73 H           6.8301   -2.4638    0.0000 H       1  UNL1        0.2105
     74 H           8.7560    0.7128    0.0000 H       1  UNL1        0.2101
     75 H           6.0010    8.5051    0.0000 H       1  UNL1        0.2954
     76 H           2.0000    3.1951    0.0000 H       1  UNL1        0.2095
     77 H          11.4133   -6.1108    0.0000 H       1  UNL1        0.0299
     78 H          12.4146   -5.3026    0.0000 H       1  UNL1        0.0271
     79 H          11.8813   -4.7103    0.0000 H       1  UNL1        0.0271
     80 H          11.0968   -3.6223    0.0000 H       1  UNL1        0.0577
     81 H          10.2243   -5.0369    0.0000 H       1  UNL1        0.0308
     82 H          10.7577   -5.6292    0.0000 H       1  UNL1        0.0308
     83 H           8.5270   -3.9365    0.0000 H       1  UNL1        0.0280
     84 H           8.4811   -4.8121    0.0000 H       1  UNL1        0.0280
     85 H           9.3567   -4.8580    0.0000 H       1  UNL1        0.0280
     86 H          13.5736   -6.5898    0.0000 H       1  UNL1        0.0290
     87 H          13.0403   -5.9975    0.0000 H       1  UNL1        0.0290
     88 H          10.8449   -6.5108    0.0000 H       1  UNL1        0.0232
     89 H          10.7990   -7.3864    0.0000 H       1  UNL1        0.0232
     90 H          11.6747   -7.4323    0.0000 H       1  UNL1        0.0232
     91 H          12.5423   -7.6112    0.0000 H       1  UNL1        0.0557
     92 H          13.0756   -8.2036    0.0000 H       1  UNL1        0.0557
     93 H          14.2419   -8.5051    0.0000 H       1  UNL1        0.2094
@<TRIPOS>BOND
     1     1    20    1
     2     1    24    1
     3     2    20    1
     4     2    32    1
     5     3    24    1
     6     3    28    1
     7     4    23    1
     8     4    29    1
     9     5    21    1
    10     5    66    1
    11     6    29    1
    12     6    34    1
    13     7    26    1
    14     7    71    1
    15     8    27    1
    16     8    72    1
    17     9    30    1
    18     9    73    1
    19    10    31    1
    20    10    74    1
    21    11    37    1
    22    11    38    1
    23    12    35    1
    24    12    75    1
    25    13    36    1
    26    13    76    1
    27    14    35    2
    28    15    38    2
    29    16    47    1
    30    16    93    1
    31    17    18    1
    32    17    20    1
    33    17    22    1
    34    17    48    1
    35    18    19    1
    36    18    25    1
    37    18    49    1
    38    19    21    1
    39    19    50    1
    40    19    51    1
    41    20    52    1
    42    21    22    1
    43    21    53    1
    44    22    33    2
    45    23    24    1
    46    23    26    1
    47    23    54    1
    48    24    55    1
    49    25    32    2
    50    25    35    1
    51    26    27    1
    52    26    56    1
    53    27    28    1
    54    27    57    1
    55    28    36    1
    56    28    58    1
    57    29    31    1
    58    29    59    1
    59    30    31    1
    60    30    34    1
    61    30    37    1
    62    31    60    1
    63    32    61    1
    64    33    62    1
    65    33    63    1
    66    34    64    1
    67    34    65    1
    68    36    67    1
    69    36    68    1
    70    37    69    1
    71    37    70    1
    72    38    39    1
    73    39    40    2
    74    39    44    1
    75    40    43    1
    76    40    80    1
    77    41    42    1
    78    41    45    1
    79    41    46    1
    80    41    77    1
    81    42    43    1
    82    42    78    1
    83    42    79    1
    84    43    81    1
    85    43    82    1
    86    44    83    1
    87    44    84    1
    88    44    85    1
    89    45    47    1
    90    45    86    1
    91    45    87    1
    92    46    88    1
    93    46    89    1
    94    46    90    1
    95    47    91    1
    96    47    92    1
