@<TRIPOS>MOLECULE
IMPHY002833
 73 77 0 0 0
SMALL
GASTEIGER

@<TRIPOS>ATOM
      1 O          10.5680    1.0805    0.0000 O.2     1  UNL1       -0.2916
      2 O          14.2741   -2.0019    0.0000 O.3     1  UNL1       -0.5064
      3 O           9.8100    0.7301    0.0000 O.3     1  UNL1       -0.5063
      4 O           9.8100   -2.7340    0.0000 O.3     1  UNL1       -0.5063
      5 O          10.6500    2.3171    0.0000 O.3     1  UNL1       -0.5059
      6 O          16.0062    0.9981    0.0000 O.3     1  UNL1       -0.5066
      7 O          13.9052    3.5019    0.0000 O.3     1  UNL1       -0.5066
      8 O           5.3100   -0.1359    0.0000 O.3     1  UNL1       -0.5061
      9 O           2.3100   -1.8680    0.0000 O.3     1  UNL1       -0.5066
     10 C          11.6760   -0.5019    0.0000 C.3     1  UNL1        0.0399
     11 C          12.5421   -1.0019    0.0000 C.3     1  UNL1        0.0019
     12 C          10.8100   -1.0019    0.0000 C.3     1  UNL1        0.0198
     13 C          12.5421   -2.0019    0.0000 C.3     1  UNL1       -0.0244
     14 C          11.6760   -2.5019    0.0000 C.2     1  UNL1       -0.0753
     15 C          10.8100   -2.0019    0.0000 C.2     1  UNL1       -0.0767
     16 C          13.4081   -0.5019    0.0000 C.ar    1  UNL1       -0.0016
     17 C           9.8100   -1.0019    0.0000 C.ar    1  UNL1        0.0429
     18 C          11.3340    0.4378    0.0000 C.2     1  UNL1        0.1712
     19 C          11.6760   -3.5019    0.0000 C.3     1  UNL1       -0.0437
     20 C          14.2741   -1.0019    0.0000 C.ar    1  UNL1        0.1238
     21 C          11.9768    1.2038    0.0000 C.ar    1  UNL1        0.0593
     22 C          13.4081    0.4981    0.0000 C.ar    1  UNL1       -0.0514
     23 C           9.3100   -0.1359    0.0000 C.ar    1  UNL1        0.1246
     24 C           9.3100   -1.8679    0.0000 C.ar    1  UNL1        0.1246
     25 C          15.1401   -0.5019    0.0000 C.ar    1  UNL1        0.0216
     26 C           8.3100   -0.1359    0.0000 C.ar    1  UNL1       -0.0125
     27 C           8.3100   -1.8680    0.0000 C.ar    1  UNL1       -0.0125
     28 C          14.2741    0.9981    0.0000 C.ar    1  UNL1       -0.0197
     29 C          11.6348    2.1435    0.0000 C.ar    1  UNL1        0.1308
     30 C           7.8100   -1.0019    0.0000 C.ar    1  UNL1       -0.0181
     31 C          12.9616    1.0301    0.0000 C.ar    1  UNL1       -0.0443
     32 C          15.1401    0.4981    0.0000 C.ar    1  UNL1        0.1203
     33 C          12.2776    2.9095    0.0000 C.ar    1  UNL1        0.0220
     34 C          13.6044    1.7962    0.0000 C.ar    1  UNL1       -0.0193
     35 C           6.8100   -1.0019    0.0000 C.2     1  UNL1       -0.0537
     36 C          13.2624    2.7359    0.0000 C.ar    1  UNL1        0.1204
     37 C           6.3100   -1.8680    0.0000 C.2     1  UNL1       -0.0505
     38 C           5.3100   -1.8680    0.0000 C.ar    1  UNL1        0.0167
     39 C           4.8100   -1.0019    0.0000 C.ar    1  UNL1        0.1274
     40 C           4.8100   -2.7340    0.0000 C.ar    1  UNL1       -0.0477
     41 C           3.8100   -1.0019    0.0000 C.ar    1  UNL1        0.0219
     42 C           3.8100   -2.7340    0.0000 C.ar    1  UNL1       -0.0194
     43 C           3.3100   -1.8680    0.0000 C.ar    1  UNL1        0.1204
     44 H          12.1510   -0.1034    0.0000 H       1  UNL1        0.0396
     45 H          12.5421   -0.1519    0.0000 H       1  UNL1        0.0360
     46 H          10.5900   -0.1809    0.0000 H       1  UNL1        0.0401
     47 H          12.7541   -2.5845    0.0000 H       1  UNL1        0.0316
     48 H          13.1526   -1.8943    0.0000 H       1  UNL1        0.0316
     49 H          10.2731   -2.3119    0.0000 H       1  UNL1        0.0578
     50 H          11.0560   -3.5019    0.0000 H       1  UNL1        0.0274
     51 H          11.6760   -4.1219    0.0000 H       1  UNL1        0.0274
     52 H          12.2960   -3.5019    0.0000 H       1  UNL1        0.0274
     53 H          12.8711    0.8081    0.0000 H       1  UNL1        0.0623
     54 H          15.6771   -0.8119    0.0000 H       1  UNL1        0.0691
     55 H           8.0000    0.4010    0.0000 H       1  UNL1        0.0660
     56 H           8.0000   -2.4049    0.0000 H       1  UNL1        0.0660
     57 H          14.2741    1.6181    0.0000 H       1  UNL1        0.0654
     58 H          13.1737    0.4475    0.0000 H       1  UNL1        0.0627
     59 H          14.8110   -2.3119    0.0000 H       1  UNL1        0.2921
     60 H           9.5000    1.2670    0.0000 H       1  UNL1        0.2921
     61 H           9.5000   -3.2709    0.0000 H       1  UNL1        0.2921
     62 H          12.0655    3.4922    0.0000 H       1  UNL1        0.0691
     63 H          14.2150    1.6885    0.0000 H       1  UNL1        0.0654
     64 H           6.5000   -0.4650    0.0000 H       1  UNL1        0.0624
     65 H          10.4379    2.8998    0.0000 H       1  UNL1        0.2922
     66 H          16.5431    0.6881    0.0000 H       1  UNL1        0.2921
     67 H           6.6200   -2.4049    0.0000 H       1  UNL1        0.0625
     68 H          14.5157    3.3943    0.0000 H       1  UNL1        0.2921
     69 H           5.1200   -3.2709    0.0000 H       1  UNL1        0.0626
     70 H           3.5000   -0.4650    0.0000 H       1  UNL1        0.0691
     71 H           3.5000   -3.2709    0.0000 H       1  UNL1        0.0654
     72 H           5.0000    0.4010    0.0000 H       1  UNL1        0.2922
     73 H           2.0000   -2.4049    0.0000 H       1  UNL1        0.2921
@<TRIPOS>BOND
     1     1    18    2
     2     2    20    1
     3     2    59    1
     4     3    23    1
     5     3    60    1
     6     4    24    1
     7     4    61    1
     8     5    29    1
     9     5    65    1
    10     6    32    1
    11     6    66    1
    12     7    36    1
    13     7    68    1
    14     8    39    1
    15     8    72    1
    16     9    43    1
    17     9    73    1
    18    10    11    1
    19    10    12    1
    20    10    18    1
    21    10    44    1
    22    11    13    1
    23    11    16    1
    24    11    45    1
    25    12    15    1
    26    12    17    1
    27    12    46    1
    28    13    14    1
    29    13    47    1
    30    13    48    1
    31    14    15    2
    32    14    19    1
    33    15    49    1
    34    16    20   ar
    35    16    22   ar
    36    17    23   ar
    37    17    24   ar
    38    18    21    1
    39    19    50    1
    40    19    51    1
    41    19    52    1
    42    20    25   ar
    43    21    29   ar
    44    21    31   ar
    45    22    28   ar
    46    22    53    1
    47    23    26   ar
    48    24    27   ar
    49    25    32   ar
    50    25    54    1
    51    26    30   ar
    52    26    55    1
    53    27    30   ar
    54    27    56    1
    55    28    32   ar
    56    28    57    1
    57    29    33   ar
    58    30    35    1
    59    31    34   ar
    60    31    58    1
    61    33    36   ar
    62    33    62    1
    63    34    36   ar
    64    34    63    1
    65    35    37    2
    66    35    64    1
    67    37    38    1
    68    37    67    1
    69    38    39   ar
    70    38    40   ar
    71    39    41   ar
    72    40    42   ar
    73    40    69    1
    74    41    43   ar
    75    41    70    1
    76    42    43   ar
    77    42    71    1
