@<TRIPOS>MOLECULE
IMPHY010455
 49 54 0 0 0
SMALL
GASTEIGER

@<TRIPOS>ATOM
      1 O           6.3444   -2.3181    0.0000 O.3     1  UNL1       -0.3771
      2 O           7.5174    0.3977    0.0000 O.3     1  UNL1       -0.3768
      3 O           2.8641    0.3345    0.0000 O.3     1  UNL1       -0.4606
      4 O           4.4397   -0.2812    0.0000 O.2     1  UNL1       -0.2939
      5 O           4.1641    2.1797    0.0000 O.3     1  UNL1       -0.3943
      6 O           8.7167   -1.0349    0.0000 O.2     1  UNL1       -0.2895
      7 O           2.0000   -1.2105    0.0000 O.2     1  UNL1       -0.2508
      8 C           6.3961    0.3137    0.0000 C.3     1  UNL1        0.0275
      9 C           6.3961   -0.6863    0.0000 C.3     1  UNL1        0.0132
     10 C           5.5301   -1.1863    0.0000 C.3     1  UNL1        0.0209
     11 C           5.5301    0.8137    0.0000 C.3     1  UNL1        0.0412
     12 C           6.5180   -1.3333    0.0000 C.3     1  UNL1        0.1663
     13 C           4.6641    0.3137    0.0000 C.3     1  UNL1        0.0449
     14 C           7.0174   -0.4684    0.0000 C.3     1  UNL1        0.1701
     15 C           4.6641   -0.6863    0.0000 C.3     1  UNL1       -0.0098
     16 C           5.5262    0.8391    0.0000 C.3     1  UNL1       -0.0044
     17 C           3.7702    0.8483    0.0000 C.3     1  UNL1        0.1125
     18 C           5.4043   -0.5450    0.0000 C.2     1  UNL1        0.1729
     19 C           6.2741   -1.6648    0.0000 C.2     1  UNL1       -0.0617
     20 C           6.3961    1.3137    0.0000 C.3     1  UNL1       -0.0549
     21 C           5.0302   -2.0524    0.0000 C.3     1  UNL1       -0.0553
     22 C           3.7702   -1.2210    0.0000 C.3     1  UNL1        0.0491
     23 C           4.6641    1.3137    0.0000 C.3     1  UNL1        0.0542
     24 C           7.7241   -1.1561    0.0000 C.2     1  UNL1        0.1912
     25 C           7.2037   -1.9937    0.0000 C.2     1  UNL1       -0.0166
     26 C           2.8641   -0.7071    0.0000 C.2     1  UNL1        0.3077
     27 C           5.6543   -2.4496    0.0000 C.3     1  UNL1       -0.0428
     28 H           5.6085    1.6600    0.0000 H       1  UNL1        0.0392
     29 H           4.6641   -1.5363    0.0000 H       1  UNL1        0.0320
     30 H           6.1099    1.0480    0.0000 H       1  UNL1        0.0310
     31 H           5.4217    1.4502    0.0000 H       1  UNL1        0.0310
     32 H           3.3537    1.5893    0.0000 H       1  UNL1        0.0741
     33 H           7.0162    1.3137    0.0000 H       1  UNL1        0.0237
     34 H           6.3961    1.9337    0.0000 H       1  UNL1        0.0237
     35 H           5.7762    1.3137    0.0000 H       1  UNL1        0.0237
     36 H           4.4932   -1.7425    0.0000 H       1  UNL1        0.0236
     37 H           4.7203   -2.5894    0.0000 H       1  UNL1        0.0236
     38 H           5.5672   -2.3624    0.0000 H       1  UNL1        0.0236
     39 H           3.3765   -1.7000    0.0000 H       1  UNL1        0.0381
     40 H           4.1748   -1.6908    0.0000 H       1  UNL1        0.0381
     41 H           5.2467    1.1016    0.0000 H       1  UNL1        0.0564
     42 H           4.0652    1.1532    0.0000 H       1  UNL1        0.0564
     43 H           7.4090   -2.5788    0.0000 H       1  UNL1        0.0653
     44 H           6.8194   -2.7166    0.0000 H       1  UNL1        0.2109
     45 H           8.1374    0.3977    0.0000 H       1  UNL1        0.2109
     46 H           5.1677   -2.0654    0.0000 H       1  UNL1        0.0275
     47 H           5.2700   -2.9362    0.0000 H       1  UNL1        0.0275
     48 H           6.1409   -2.8339    0.0000 H       1  UNL1        0.0275
     49 H           4.4741    2.7166    0.0000 H       1  UNL1        0.2094
@<TRIPOS>BOND
     1    12     1    1
     2     1    44    1
     3    14     2    1
     4     2    45    1
     5     3    17    1
     6     3    26    1
     7     4    18    2
     8     5    23    1
     9     5    49    1
    10     6    24    2
    11     7    26    2
    12     8     9    1
    13     8    11    1
    14     8    14    1
    15     8    20    1
    16     9    10    1
    17     9    16    1
    18     9    19    1
    19    10    12    1
    20    10    15    1
    21    10    21    1
    22    11    13    1
    23    11    18    1
    24    11    28    1
    25    12    14    1
    26    12    18    1
    27    13    15    1
    28    13    17    1
    29    13    23    1
    30    14    24    1
    31    15    22    1
    32    15    29    1
    33    16    17    1
    34    16    30    1
    35    16    31    1
    36    17    32    1
    37    19    25    2
    38    19    27    1
    39    20    33    1
    40    20    34    1
    41    20    35    1
    42    21    36    1
    43    21    37    1
    44    21    38    1
    45    22    26    1
    46    22    39    1
    47    22    40    1
    48    23    41    1
    49    23    42    1
    50    24    25    1
    51    25    43    1
    52    27    46    1
    53    27    47    1
    54    27    48    1
