@<TRIPOS>MOLECULE
IMPHY013380
 93 98 0 0 0
SMALL
GASTEIGER

@<TRIPOS>ATOM
      1 O          11.2079   -1.7549    0.0000 O.3     1  UNL1       -0.3302
      2 O           5.1350   -1.2393    0.0000 O.3     1  UNL1       -0.3313
      3 O          10.3592   -0.2450    0.0000 O.3     1  UNL1       -0.4515
      4 O           6.8671   -1.2393    0.0000 O.3     1  UNL1       -0.4598
      5 O          10.3130   -4.2447    0.0000 O.3     1  UNL1       -0.3864
      6 O           8.5926   -3.2247    0.0000 O.3     1  UNL1       -0.3864
      7 O           8.6158   -1.2249    0.0000 O.3     1  UNL1       -0.3829
      8 O           5.1350   -4.2393    0.0000 O.3     1  UNL1       -0.3864
      9 O           3.4030   -3.2393    0.0000 O.3     1  UNL1       -0.3865
     10 O           6.8671   -3.2393    0.0000 O.3     1  UNL1       -0.3829
     11 O          12.9282   -2.7748    0.0000 O.3     1  UNL1       -0.4589
     12 O           2.5369   -1.7393    0.0000 O.3     1  UNL1       -0.3924
     13 O           8.6504    1.7749    0.0000 O.2     1  UNL1       -0.1997
     14 O           5.1208    1.8399    0.0000 O.3     1  UNL1       -0.5063
     15 O          13.7769   -4.2848    0.0000 O.2     1  UNL1       -0.2456
     16 O          11.2773    4.2447    0.0000 O.3     1  UNL1       -0.5032
     17 O          12.9745    1.2249    0.0000 O.3     1  UNL1       -0.5032
     18 O          12.9976    3.2247    0.0000 O.3     1  UNL1       -0.5009
     19 O          18.9842   -3.3449    0.0000 O.3     1  UNL1       -0.5033
     20 O          19.0074   -1.3450    0.0000 O.3     1  UNL1       -0.5033
     21 C          10.3246   -3.2448    0.0000 C.3     1  UNL1        0.1130
     22 C           9.4644   -2.7348    0.0000 C.3     1  UNL1        0.1152
     23 C          11.1963   -2.7548    0.0000 C.3     1  UNL1        0.1250
     24 C           9.4759   -1.7349    0.0000 C.3     1  UNL1        0.1454
     25 C           5.1350   -3.2393    0.0000 C.3     1  UNL1        0.1152
     26 C           4.2690   -2.7393    0.0000 C.3     1  UNL1        0.1120
     27 C           6.0010   -2.7393    0.0000 C.3     1  UNL1        0.1454
     28 C           4.2690   -1.7393    0.0000 C.3     1  UNL1        0.1140
     29 C          10.3477   -1.2449    0.0000 C.3     1  UNL1        0.2313
     30 C           6.0010   -1.7393    0.0000 C.3     1  UNL1        0.2308
     31 C          12.0565   -3.2648    0.0000 C.3     1  UNL1        0.1215
     32 C           3.4030   -1.2393    0.0000 C.3     1  UNL1        0.0731
     33 C           9.4991    0.2650    0.0000 C.ar    1  UNL1        0.2288
     34 C           6.8671   -0.2393    0.0000 C.ar    1  UNL1        0.1437
     35 C           7.7671    0.2850    0.0000 C.ar    1  UNL1        0.1245
     36 C           8.6273   -0.2249    0.0000 C.ar    1  UNL1        0.0093
     37 C           9.5106    1.2649    0.0000 C.ar    1  UNL1        0.4047
     38 C           7.7787    1.2850    0.0000 C.ar    1  UNL1        0.3708
     39 C           5.9670    0.2850    0.0000 C.ar    1  UNL1        0.0229
     40 C           6.8910    1.8299    0.0000 C.ar    1  UNL1        0.0847
     41 C           5.9790    1.3266    0.0000 C.ar    1  UNL1        0.1293
     42 C          10.3824    1.7549    0.0000 C.ar    1  UNL1        0.0899
     43 C          13.7884   -3.2848    0.0000 C.2     1  UNL1        0.3320
     44 C          11.2426    1.2449    0.0000 C.ar    1  UNL1       -0.0000
     45 C          10.3939    2.7548    0.0000 C.ar    1  UNL1       -0.0000
     46 C          14.6602   -2.7949    0.0000 C.2     1  UNL1        0.0231
     47 C          11.2657    3.2448    0.0000 C.ar    1  UNL1        0.1628
     48 C          12.1143    1.7349    0.0000 C.ar    1  UNL1        0.1628
     49 C          12.1259    2.7348    0.0000 C.ar    1  UNL1        0.2006
     50 C          15.5204   -3.3049    0.0000 C.2     1  UNL1       -0.0477
     51 C          16.3921   -2.8149    0.0000 C.ar    1  UNL1       -0.0211
     52 C          17.2523   -3.3249    0.0000 C.ar    1  UNL1       -0.0094
     53 C          16.4037   -1.8150    0.0000 C.ar    1  UNL1       -0.0509
     54 C          18.1240   -2.8349    0.0000 C.ar    1  UNL1        0.1588
     55 C          17.2754   -1.3250    0.0000 C.ar    1  UNL1       -0.0160
     56 C          18.1356   -1.8350    0.0000 C.ar    1  UNL1        0.1582
     57 H          10.8579   -3.5610    0.0000 H       1  UNL1        0.0647
     58 H          10.0049   -2.4310    0.0000 H       1  UNL1        0.0648
     59 H          11.7368   -2.4510    0.0000 H       1  UNL1        0.0658
     60 H           8.9354   -2.0386    0.0000 H       1  UNL1        0.0683
     61 H           4.5981   -3.5493    0.0000 H       1  UNL1        0.0648
     62 H           4.2690   -3.3593    0.0000 H       1  UNL1        0.0647
     63 H           6.0010   -3.3593    0.0000 H       1  UNL1        0.0683
     64 H           4.2690   -1.1193    0.0000 H       1  UNL1        0.0647
     65 H           9.8144   -0.9287    0.0000 H       1  UNL1        0.1084
     66 H           6.0010   -1.1193    0.0000 H       1  UNL1        0.1084
     67 H          11.6525   -3.7351    0.0000 H       1  UNL1        0.0725
     68 H          12.4495   -3.7443    0.0000 H       1  UNL1        0.0725
     69 H           3.8015   -0.7643    0.0000 H       1  UNL1        0.0584
     70 H           3.0044   -0.7643    0.0000 H       1  UNL1        0.0584
     71 H          10.8463   -4.5609    0.0000 H       1  UNL1        0.2100
     72 H           8.5854   -3.8447    0.0000 H       1  UNL1        0.2100
     73 H           8.0753   -1.5286    0.0000 H       1  UNL1        0.2102
     74 H           4.5981   -4.5493    0.0000 H       1  UNL1        0.2100
     75 H           3.4030   -3.8593    0.0000 H       1  UNL1        0.2100
     76 H           6.8671   -3.8593    0.0000 H       1  UNL1        0.2102
     77 H           8.6201   -0.8449    0.0000 H       1  UNL1        0.0667
     78 H           2.0000   -1.4293    0.0000 H       1  UNL1        0.2095
     79 H           5.4277   -0.0208    0.0000 H       1  UNL1        0.0691
     80 H           6.9053    2.4498    0.0000 H       1  UNL1        0.0749
     81 H          11.2354    0.6250    0.0000 H       1  UNL1        0.0664
     82 H           9.8606    3.0710    0.0000 H       1  UNL1        0.0664
     83 H          14.6673   -2.1749    0.0000 H       1  UNL1        0.0689
     84 H           5.1304    2.4598    0.0000 H       1  UNL1        0.2921
     85 H          15.5132   -3.9248    0.0000 H       1  UNL1        0.0626
     86 H          10.7439    4.5609    0.0000 H       1  UNL1        0.2923
     87 H          13.5150    1.5286    0.0000 H       1  UNL1        0.2923
     88 H          13.0048    3.8447    0.0000 H       1  UNL1        0.2924
     89 H          17.2451   -3.9448    0.0000 H       1  UNL1        0.0661
     90 H          15.8704   -1.4988    0.0000 H       1  UNL1        0.0625
     91 H          17.2826   -0.7051    0.0000 H       1  UNL1        0.0655
     92 H          18.9771   -3.9649    0.0000 H       1  UNL1        0.2923
     93 H          19.0145   -0.7251    0.0000 H       1  UNL1        0.2923
@<TRIPOS>UNITY_ATOM_ATTR
13 1
charge 1
@<TRIPOS>BOND
     1     1    23    1
     2     1    29    1
     3     2    28    1
     4     2    30    1
     5    29     3    1
     6     3    33    1
     7    30     4    1
     8     4    34    1
     9    21     5    1
    10     5    71    1
    11     6    22    1
    12     6    72    1
    13     7    24    1
    14     7    73    1
    15    25     8    1
    16     8    74    1
    17    26     9    1
    18     9    75    1
    19    10    27    1
    20    10    76    1
    21    11    31    1
    22    11    43    1
    23    12    32    1
    24    12    78    1
    25    13    37   ar
    26    13    38   ar
    27    14    41    1
    28    14    84    1
    29    15    43    2
    30    16    47    1
    31    16    86    1
    32    17    48    1
    33    17    87    1
    34    18    49    1
    35    18    88    1
    36    19    54    1
    37    19    92    1
    38    20    56    1
    39    20    93    1
    40    21    22    1
    41    21    23    1
    42    21    57    1
    43    22    24    1
    44    22    58    1
    45    23    31    1
    46    23    59    1
    47    24    29    1
    48    24    60    1
    49    25    26    1
    50    25    27    1
    51    25    61    1
    52    26    28    1
    53    26    62    1
    54    27    30    1
    55    27    63    1
    56    28    32    1
    57    28    64    1
    58    29    65    1
    59    30    66    1
    60    31    67    1
    61    31    68    1
    62    32    69    1
    63    32    70    1
    64    33    36   ar
    65    33    37   ar
    66    34    35   ar
    67    34    39   ar
    68    35    36   ar
    69    35    38   ar
    70    36    77    1
    71    37    42    1
    72    38    40   ar
    73    39    41   ar
    74    39    79    1
    75    40    41   ar
    76    40    80    1
    77    42    44   ar
    78    42    45   ar
    79    43    46    1
    80    44    48   ar
    81    44    81    1
    82    45    47   ar
    83    45    82    1
    84    46    50    2
    85    46    83    1
    86    47    49   ar
    87    48    49   ar
    88    50    51    1
    89    50    85    1
    90    51    52   ar
    91    51    53   ar
    92    52    54   ar
    93    52    89    1
    94    53    55   ar
    95    53    90    1
    96    54    56   ar
    97    55    56   ar
    98    55    91    1
