@<TRIPOS>MOLECULE
IMPHY012841
 57 61 0 0 0
SMALL
GASTEIGER

@<TRIPOS>ATOM
      1 O           5.1350   -2.6694    0.0000 O.3     1  UNL1       -0.3313
      2 O           6.8671   -2.6694    0.0000 O.3     1  UNL1       -0.4569
      3 O           5.1350   -5.6694    0.0000 O.3     1  UNL1       -0.3864
      4 O           3.4030   -4.6694    0.0000 O.3     1  UNL1       -0.3865
      5 O           6.8671   -4.6694    0.0000 O.3     1  UNL1       -0.3829
      6 O           2.5369   -3.1694    0.0000 O.3     1  UNL1       -0.3924
      7 O           8.6431    0.3375    0.0000 O.2     1  UNL1       -0.4618
      8 O           5.1350   -1.6694    0.0000 O.3     1  UNL1       -0.4885
      9 O           5.1350    0.3306    0.0000 O.3     1  UNL1       -0.5027
     10 O           5.9793    1.8621    0.0000 O.2     1  UNL1       -0.2863
     11 O           9.3399    5.0731    0.0000 O.3     1  UNL1       -0.4526
     12 O           7.9429    5.8725    0.0000 O.3     1  UNL1       -0.4526
     13 C           5.1350   -4.6694    0.0000 C.3     1  UNL1        0.1152
     14 C           4.2690   -4.1694    0.0000 C.3     1  UNL1        0.1120
     15 C           6.0010   -4.1694    0.0000 C.3     1  UNL1        0.1454
     16 C           4.2690   -3.1694    0.0000 C.3     1  UNL1        0.1140
     17 C           6.0010   -3.1694    0.0000 C.3     1  UNL1        0.2310
     18 C           3.4030   -2.6694    0.0000 C.3     1  UNL1        0.0731
     19 C           6.8671   -1.6694    0.0000 C.ar    1  UNL1        0.1726
     20 C           6.0010   -1.1694    0.0000 C.ar    1  UNL1        0.2044
     21 C           7.7331   -1.1694    0.0000 C.ar    1  UNL1        0.0271
     22 C           7.7331   -0.1694    0.0000 C.ar    1  UNL1        0.1457
     23 C           6.8671    0.3306    0.0000 C.ar    1  UNL1        0.1097
     24 C           6.0010   -0.1694    0.0000 C.ar    1  UNL1        0.1768
     25 C           6.8510    1.3722    0.0000 C.ar    1  UNL1        0.2038
     26 C           7.7490    1.8999    0.0000 C.ar    1  UNL1        0.0645
     27 C           7.7452    2.8999    0.0000 C.ar    1  UNL1       -0.0076
     28 C           8.6511    1.3791    0.0000 C.ar    1  UNL1        0.1038
     29 C           8.6093    3.4032    0.0000 C.ar    1  UNL1       -0.0082
     30 C           6.8772    3.3966    0.0000 C.ar    1  UNL1       -0.0501
     31 C           8.6054    4.4032    0.0000 C.ar    1  UNL1        0.1668
     32 C           7.7375    4.8999    0.0000 C.ar    1  UNL1        0.1663
     33 C           6.8734    4.3965    0.0000 C.ar    1  UNL1       -0.0156
     34 C           4.2690   -1.1694    0.0000 C.3     1  UNL1        0.0791
     35 C           8.9312    5.9794    0.0000 C.3     1  UNL1        0.2332
     36 H           4.5981   -4.9794    0.0000 H       1  UNL1        0.0648
     37 H           4.2690   -4.7894    0.0000 H       1  UNL1        0.0647
     38 H           6.0010   -4.7894    0.0000 H       1  UNL1        0.0683
     39 H           4.2690   -2.5494    0.0000 H       1  UNL1        0.0647
     40 H           6.0010   -2.5494    0.0000 H       1  UNL1        0.1084
     41 H           3.8015   -2.1944    0.0000 H       1  UNL1        0.0584
     42 H           3.0044   -2.1944    0.0000 H       1  UNL1        0.0584
     43 H           4.5981   -5.9794    0.0000 H       1  UNL1        0.2100
     44 H           3.4030   -5.2894    0.0000 H       1  UNL1        0.2100
     45 H           6.8671   -5.2894    0.0000 H       1  UNL1        0.2102
     46 H           2.0000   -2.8594    0.0000 H       1  UNL1        0.2095
     47 H           8.2700   -1.4794    0.0000 H       1  UNL1        0.0692
     48 H           9.1892    1.6870    0.0000 H       1  UNL1        0.1037
     49 H           9.1474    3.0953    0.0000 H       1  UNL1        0.0661
     50 H           6.3415    3.0845    0.0000 H       1  UNL1        0.0625
     51 H           4.5981    0.0206    0.0000 H       1  UNL1        0.2923
     52 H           6.3353    4.7045    0.0000 H       1  UNL1        0.0655
     53 H           4.5790   -0.6324    0.0000 H       1  UNL1        0.0660
     54 H           3.7320   -0.8594    0.0000 H       1  UNL1        0.0660
     55 H           3.9590   -1.7063    0.0000 H       1  UNL1        0.0660
     56 H           9.5201    6.1734    0.0000 H       1  UNL1        0.1166
     57 H           8.8002    6.5854    0.0000 H       1  UNL1        0.1166
@<TRIPOS>BOND
     1     1    16    1
     2     1    17    1
     3     2    17    1
     4     2    19    1
     5     3    13    1
     6     3    43    1
     7     4    14    1
     8     4    44    1
     9     5    15    1
    10     5    45    1
    11     6    18    1
    12     6    46    1
    13     7    22   ar
    14     7    28   ar
    15     8    20    1
    16     8    34    1
    17     9    24    1
    18     9    51    1
    19    10    25    2
    20    11    31    1
    21    11    35    1
    22    12    32    1
    23    12    35    1
    24    13    14    1
    25    13    15    1
    26    13    36    1
    27    14    16    1
    28    14    37    1
    29    15    17    1
    30    15    38    1
    31    16    18    1
    32    16    39    1
    33    17    40    1
    34    18    41    1
    35    18    42    1
    36    19    20   ar
    37    19    21   ar
    38    20    24   ar
    39    21    22   ar
    40    21    47    1
    41    22    23   ar
    42    23    24   ar
    43    23    25   ar
    44    25    26   ar
    45    26    27    1
    46    26    28   ar
    47    27    29   ar
    48    27    30   ar
    49    28    48    1
    50    29    31   ar
    51    29    49    1
    52    30    33   ar
    53    30    50    1
    54    31    32   ar
    55    32    33   ar
    56    33    52    1
    57    34    53    1
    58    34    54    1
    59    34    55    1
    60    35    56    1
    61    35    57    1
