@<TRIPOS>MOLECULE
IMPHY016527
 31 31 0 0 0
SMALL
GASTEIGER

@<TRIPOS>ATOM
      1 O           3.7320    0.2500    0.0000 O.3     1  UNL1       -0.3752
      2 C           4.5981    2.7500    0.0000 C.3     1  UNL1       -0.0446
      3 C           4.5981    1.7500    0.0000 C.3     1  UNL1       -0.0271
      4 C           3.7320    1.2500    0.0000 C.3     1  UNL1        0.0483
      5 C           5.4641    3.2500    0.0000 C.3     1  UNL1       -0.0626
      6 C           3.7320    3.2500    0.0000 C.3     1  UNL1       -0.0626
      7 C           2.8660   -0.2500    0.0000 C.3     1  UNL1        0.0727
      8 C           2.8660   -1.2500    0.0000 C.ar    1  UNL1       -0.0219
      9 C           2.0000   -1.7500    0.0000 C.ar    1  UNL1       -0.0564
     10 C           3.7320   -1.7500    0.0000 C.ar    1  UNL1       -0.0564
     11 C           2.0000   -2.7500    0.0000 C.ar    1  UNL1       -0.0614
     12 C           3.7320   -2.7500    0.0000 C.ar    1  UNL1       -0.0614
     13 C           2.8660   -3.2500    0.0000 C.ar    1  UNL1       -0.0617
     14 H           4.5981    3.3700    0.0000 H       1  UNL1        0.0296
     15 H           4.8101    1.1674    0.0000 H       1  UNL1        0.0290
     16 H           5.2087    1.8577    0.0000 H       1  UNL1        0.0290
     17 H           3.5200    1.8326    0.0000 H       1  UNL1        0.0560
     18 H           3.1215    1.1423    0.0000 H       1  UNL1        0.0560
     19 H           5.7741    2.7131    0.0000 H       1  UNL1        0.0232
     20 H           6.0010    3.5600    0.0000 H       1  UNL1        0.0232
     21 H           5.1541    3.7869    0.0000 H       1  UNL1        0.0232
     22 H           4.0420    3.7869    0.0000 H       1  UNL1        0.0232
     23 H           3.1951    3.5600    0.0000 H       1  UNL1        0.0232
     24 H           3.4220    2.7131    0.0000 H       1  UNL1        0.0232
     25 H           2.6540    0.3326    0.0000 H       1  UNL1        0.0610
     26 H           2.2554   -0.3577    0.0000 H       1  UNL1        0.0610
     27 H           1.4631   -1.4400    0.0000 H       1  UNL1        0.0621
     28 H           4.2690   -1.4400    0.0000 H       1  UNL1        0.0621
     29 H           1.4631   -3.0600    0.0000 H       1  UNL1        0.0618
     30 H           4.2690   -3.0600    0.0000 H       1  UNL1        0.0618
     31 H           2.8660   -3.8700    0.0000 H       1  UNL1        0.0618
@<TRIPOS>BOND
     1     1     4    1
     2     1     7    1
     3     2     3    1
     4     2     5    1
     5     2     6    1
     6     2    14    1
     7     3     4    1
     8     3    15    1
     9     3    16    1
    10     4    17    1
    11     4    18    1
    12     5    19    1
    13     5    20    1
    14     5    21    1
    15     6    22    1
    16     6    23    1
    17     6    24    1
    18     7     8    1
    19     7    25    1
    20     7    26    1
    21     8     9   ar
    22     8    10   ar
    23     9    11   ar
    24     9    27    1
    25    10    12   ar
    26    10    28    1
    27    11    13   ar
    28    11    29    1
    29    12    13   ar
    30    12    30    1
    31    13    31    1
