@<TRIPOS>MOLECULE
IMPHY004203
 33 33 0 0 0
SMALL
GASTEIGER

@<TRIPOS>ATOM
      1 O           4.5981   -1.0600    0.0000 O.3     1  UNL1       -0.4880
      2 C           4.5981   -0.0600    0.0000 C.ar    1  UNL1        0.1210
      3 C           3.7320   -1.5600    0.0000 C.3     1  UNL1        0.1080
      4 C           4.5981    1.9400    0.0000 C.ar    1  UNL1       -0.0251
      5 C           2.8660   -3.0600    0.0000 C.2     1  UNL1       -0.0765
      6 C           3.7320   -2.5600    0.0000 C.2     1  UNL1       -0.0484
      7 C           5.4641    0.4400    0.0000 C.ar    1  UNL1       -0.0194
      8 C           3.7320    0.4400    0.0000 C.ar    1  UNL1       -0.0194
      9 C           5.4641    1.4400    0.0000 C.ar    1  UNL1       -0.0511
     10 C           3.7320    1.4400    0.0000 C.ar    1  UNL1       -0.0511
     11 C           2.8660   -4.0600    0.0000 C.3     1  UNL1       -0.0439
     12 C           2.0000   -2.5600    0.0000 C.3     1  UNL1       -0.0439
     13 C           4.5981    2.9400    0.0000 C.2     1  UNL1       -0.0588
     14 C           5.4641    3.4400    0.0000 C.2     1  UNL1       -0.0866
     15 C           6.3301    2.9400    0.0000 C.3     1  UNL1       -0.0465
     16 H           3.5200   -0.9774    0.0000 H       1  UNL1        0.0742
     17 H           3.1215   -1.6677    0.0000 H       1  UNL1        0.0742
     18 H           4.2690   -2.8700    0.0000 H       1  UNL1        0.0605
     19 H           6.0010    0.1300    0.0000 H       1  UNL1        0.0654
     20 H           3.1951    0.1300    0.0000 H       1  UNL1        0.0654
     21 H           6.0010    1.7500    0.0000 H       1  UNL1        0.0625
     22 H           3.1951    1.7500    0.0000 H       1  UNL1        0.0625
     23 H           2.3100   -2.0231    0.0000 H       1  UNL1        0.0274
     24 H           2.2460   -4.0600    0.0000 H       1  UNL1        0.0274
     25 H           2.8660   -4.6800    0.0000 H       1  UNL1        0.0274
     26 H           3.4860   -4.0600    0.0000 H       1  UNL1        0.0274
     27 H           1.4631   -2.2500    0.0000 H       1  UNL1        0.0274
     28 H           1.6900   -3.0969    0.0000 H       1  UNL1        0.0274
     29 H           4.0611    3.2500    0.0000 H       1  UNL1        0.0620
     30 H           5.4641    4.0600    0.0000 H       1  UNL1        0.0569
     31 H           6.0201    2.4031    0.0000 H       1  UNL1        0.0272
     32 H           6.8671    2.6300    0.0000 H       1  UNL1        0.0272
     33 H           6.6401    3.4769    0.0000 H       1  UNL1        0.0272
@<TRIPOS>BOND
     1     1     2    1
     2     1     3    1
     3     2     7   ar
     4     2     8   ar
     5     3     6    1
     6     3    16    1
     7     3    17    1
     8     4     9   ar
     9     4    10   ar
    10     4    13    1
    11     5     6    2
    12     5    11    1
    13     5    12    1
    14     6    18    1
    15     7     9   ar
    16     7    19    1
    17     8    10   ar
    18     8    20    1
    19     9    21    1
    20    10    22    1
    21    11    24    1
    22    11    25    1
    23    11    26    1
    24    12    23    1
    25    12    27    1
    26    12    28    1
    27    13    14    2
    28    13    29    1
    29    14    15    1
    30    14    30    1
    31    15    31    1
    32    15    32    1
    33    15    33    1
