@<TRIPOS>MOLECULE
IMPHY001499
 62 65 0 0 0
SMALL
GASTEIGER

@<TRIPOS>ATOM
      1 O           2.9919   -1.8068    0.0000 O.3     1  UNL1       -0.4855
      2 O           7.4122    0.7385    0.0000 O.3     1  UNL1       -0.4947
      3 O           5.6541    3.8109    0.0000 O.3     1  UNL1       -0.4947
      4 O           4.8291   -4.9550    0.0000 O.3     1  UNL1       -0.5066
      5 C           3.9099   -0.2583    0.0000 C.3     1  UNL1        0.0096
      6 C           4.7760   -0.7583    0.0000 C.3     1  UNL1       -0.0016
      7 C           2.9999   -0.7652    0.0000 C.3     1  UNL1        0.1087
      8 C           3.9099    0.7417    0.0000 C.3     1  UNL1       -0.0199
      9 C           5.6420   -0.2583    0.0000 C.3     1  UNL1       -0.0166
     10 C           4.7760    1.2417    0.0000 C.ar    1  UNL1       -0.0334
     11 C           4.7920   -1.7998    0.0000 C.ar    1  UNL1       -0.0017
     12 C           5.6420    0.7417    0.0000 C.ar    1  UNL1       -0.0015
     13 C           2.0000   -0.7536    0.0000 C.3     1  UNL1       -0.0249
     14 C           2.5100    0.1066    0.0000 C.3     1  UNL1       -0.0249
     15 C           3.8940   -2.3276    0.0000 C.ar    1  UNL1        0.1282
     16 C           4.7599    2.2832    0.0000 C.ar    1  UNL1        0.0017
     17 C           6.5520    1.2485    0.0000 C.ar    1  UNL1        0.1270
     18 C           5.7440   -2.3204    0.0000 C.ar    1  UNL1       -0.0514
     19 C           3.8856   -3.4125    0.0000 C.ar    1  UNL1        0.0218
     20 C           5.6579    2.8109    0.0000 C.ar    1  UNL1        0.1273
     21 C           6.5600    2.2901    0.0000 C.ar    1  UNL1        0.0223
     22 C           3.8882    2.7731    0.0000 C.3     1  UNL1       -0.0055
     23 C           5.7607   -3.4053    0.0000 C.ar    1  UNL1       -0.0197
     24 C           4.8252   -3.9550    0.0000 C.ar    1  UNL1        0.1203
     25 C           3.8766    3.7731    0.0000 C.2     1  UNL1       -0.0809
     26 C           8.2839    1.2285    0.0000 C.3     1  UNL1        0.0788
     27 C           3.0048    4.2630    0.0000 C.2     1  UNL1       -0.0793
     28 C           6.5182    4.3143    0.0000 C.3     1  UNL1        0.0788
     29 C           2.9933    5.2630    0.0000 C.3     1  UNL1       -0.0440
     30 C           2.1446    3.7530    0.0000 C.3     1  UNL1       -0.0440
     31 H           3.3754    0.0558    0.0000 H       1  UNL1        0.0348
     32 H           5.3153   -1.0642    0.0000 H       1  UNL1        0.0357
     33 H           3.6979    1.3243    0.0000 H       1  UNL1        0.0317
     34 H           3.2994    0.6340    0.0000 H       1  UNL1        0.0317
     35 H           5.8540   -0.8409    0.0000 H       1  UNL1        0.0320
     36 H           6.2526   -0.1507    0.0000 H       1  UNL1        0.0320
     37 H           2.0072   -0.1336    0.0000 H       1  UNL1        0.0268
     38 H           1.3800   -0.7464    0.0000 H       1  UNL1        0.0268
     39 H           1.9928   -1.3736    0.0000 H       1  UNL1        0.0268
     40 H           3.0505    0.4104    0.0000 H       1  UNL1        0.0268
     41 H           2.2062    0.6471    0.0000 H       1  UNL1        0.0268
     42 H           1.9695   -0.1972    0.0000 H       1  UNL1        0.0268
     43 H           6.2748   -2.0002    0.0000 H       1  UNL1        0.0623
     44 H           3.3475   -3.7205    0.0000 H       1  UNL1        0.0691
     45 H           7.0981    2.5981    0.0000 H       1  UNL1        0.0691
     46 H           3.2764    2.8737    0.0000 H       1  UNL1        0.0357
     47 H           3.6828    2.1881    0.0000 H       1  UNL1        0.0357
     48 H           6.3012   -3.7091    0.0000 H       1  UNL1        0.0654
     49 H           4.4099    4.0893    0.0000 H       1  UNL1        0.0575
     50 H           8.5877    0.6880    0.0000 H       1  UNL1        0.0660
     51 H           8.8244    1.5323    0.0000 H       1  UNL1        0.0660
     52 H           7.9802    1.7690    0.0000 H       1  UNL1        0.0660
     53 H           5.3672   -5.2630    0.0000 H       1  UNL1        0.2921
     54 H           6.8302    3.7785    0.0000 H       1  UNL1        0.0660
     55 H           7.0539    4.6263    0.0000 H       1  UNL1        0.0660
     56 H           6.2061    4.8500    0.0000 H       1  UNL1        0.0660
     57 H           1.8285    4.2864    0.0000 H       1  UNL1        0.0274
     58 H           3.6132    5.2701    0.0000 H       1  UNL1        0.0274
     59 H           2.9861    5.8829    0.0000 H       1  UNL1        0.0274
     60 H           2.3733    5.2558    0.0000 H       1  UNL1        0.0274
     61 H           1.6113    3.4369    0.0000 H       1  UNL1        0.0274
     62 H           2.4608    3.2197    0.0000 H       1  UNL1        0.0274
@<TRIPOS>BOND
     1     1     7    1
     2     1    15    1
     3     2    17    1
     4     2    26    1
     5     3    20    1
     6     3    28    1
     7     4    24    1
     8     4    53    1
     9     5     6    1
    10     5     7    1
    11     5     8    1
    12     5    31    1
    13     6     9    1
    14     6    11    1
    15     6    32    1
    16     7    13    1
    17     7    14    1
    18     8    10    1
    19     8    33    1
    20     8    34    1
    21     9    12    1
    22     9    35    1
    23     9    36    1
    24    10    12   ar
    25    10    16   ar
    26    11    15   ar
    27    11    18   ar
    28    12    17   ar
    29    13    37    1
    30    13    38    1
    31    13    39    1
    32    14    40    1
    33    14    41    1
    34    14    42    1
    35    15    19   ar
    36    16    20   ar
    37    16    22    1
    38    17    21   ar
    39    18    23   ar
    40    18    43    1
    41    19    24   ar
    42    19    44    1
    43    20    21   ar
    44    21    45    1
    45    22    25    1
    46    22    46    1
    47    22    47    1
    48    23    24   ar
    49    23    48    1
    50    25    27    2
    51    25    49    1
    52    26    50    1
    53    26    51    1
    54    26    52    1
    55    27    29    1
    56    27    30    1
    57    28    54    1
    58    28    55    1
    59    28    56    1
    60    29    58    1
    61    29    59    1
    62    29    60    1
    63    30    57    1
    64    30    61    1
    65    30    62    1
