@<TRIPOS>MOLECULE
IMPHY007951
 124 130 0 0 0
SMALL
GASTEIGER

@<TRIPOS>ATOM
      1 O          11.3261    6.1324    0.0000 O.3     1  UNL1       -0.3912
      2 O           8.8741    5.4690    0.0000 O.3     1  UNL1       -0.3944
      3 O           9.4651   -3.1262    0.0000 O.3     1  UNL1       -0.4318
      4 O           8.5991   -1.6262    0.0000 O.2     1  UNL1       -0.2501
      5 O           7.7331   -3.1262    0.0000 O.3     1  UNL1       -0.3312
      6 O           9.4651   -5.1262    0.0000 O.3     1  UNL1       -0.3829
      7 O           7.7331   -6.1262    0.0000 O.3     1  UNL1       -0.3864
      8 O           6.0010   -5.1262    0.0000 O.3     1  UNL1       -0.3865
      9 O           6.0010   -2.1262    0.0000 O.3     1  UNL1       -0.3460
     10 O           5.1350   -0.6262    0.0000 O.3     1  UNL1       -0.3405
     11 O           4.2690   -3.1262    0.0000 O.3     1  UNL1       -0.3841
     12 O           2.5369   -2.1262    0.0000 O.3     1  UNL1       -0.3864
     13 O           2.5369   -0.1262    0.0000 O.3     1  UNL1       -0.3865
     14 O           3.4030    1.3738    0.0000 O.3     1  UNL1       -0.3924
     15 C          10.3708    1.4429    0.0000 C.3     1  UNL1       -0.0194
     16 C          11.2406    1.9362    0.0000 C.3     1  UNL1       -0.0257
     17 C          11.2647    2.9776    0.0000 C.3     1  UNL1       -0.0249
     18 C          10.3631    0.4429    0.0000 C.3     1  UNL1       -0.0051
     19 C          10.3708    3.5122    0.0000 C.3     1  UNL1       -0.0255
     20 C           9.4647    1.9567    0.0000 C.3     1  UNL1       -0.0463
     21 C           9.4647    2.9984    0.0000 C.3     1  UNL1       -0.0485
     22 C          11.2252   -0.0637    0.0000 C.2     1  UNL1       -0.0629
     23 C          10.3708    4.5972    0.0000 C.3     1  UNL1        0.0203
     24 C          11.2332   -1.1053    0.0000 C.3     1  UNL1       -0.0031
     25 C          12.1028    1.4295    0.0000 C.3     1  UNL1       -0.0306
     26 C          12.2206    3.4908    0.0000 C.3     1  UNL1       -0.0447
     27 C           9.4492   -0.0569    0.0000 C.3     1  UNL1       -0.0424
     28 C          10.3312   -1.6262    0.0000 C.3     1  UNL1        0.0744
     29 C           9.3846    1.2769    0.0000 C.3     1  UNL1       -0.0585
     30 C           9.4331   -1.0984    0.0000 C.3     1  UNL1       -0.0359
     31 C          11.3146    5.1325    0.0000 C.3     1  UNL1        0.0630
     32 C          12.0951    0.4296    0.0000 C.2     1  UNL1       -0.0836
     33 C          12.1229    2.4643    0.0000 C.3     1  UNL1       -0.0590
     34 C          12.2457    4.5755    0.0000 C.3     1  UNL1       -0.0257
     35 C           9.3796    0.6242    0.0000 C.3     1  UNL1       -0.0553
     36 C          12.1811   -1.6333    0.0000 C.3     1  UNL1       -0.0403
     37 C          10.3144   -2.7110    0.0000 C.3     1  UNL1       -0.0362
     38 C          12.1895   -2.7182    0.0000 C.3     1  UNL1       -0.0343
     39 C           9.8741    5.4652    0.0000 C.3     1  UNL1        0.0522
     40 C           9.3708    4.6011    0.0000 C.3     1  UNL1       -0.0548
     41 C          11.2499   -3.2607    0.0000 C.3     1  UNL1       -0.0468
     42 C           9.4651   -2.1262    0.0000 C.2     1  UNL1        0.3161
     43 C          13.1895   -2.7144    0.0000 C.3     1  UNL1       -0.0598
     44 C          12.6928   -3.5823    0.0000 C.3     1  UNL1       -0.0598
     45 C           8.5991   -3.6262    0.0000 C.3     1  UNL1        0.2337
     46 C           8.5991   -4.6262    0.0000 C.3     1  UNL1        0.1455
     47 C           7.7331   -5.1262    0.0000 C.3     1  UNL1        0.1152
     48 C           6.8671   -3.6262    0.0000 C.3     1  UNL1        0.1144
     49 C           6.8671   -4.6262    0.0000 C.3     1  UNL1        0.1120
     50 C           6.0010   -3.1262    0.0000 C.3     1  UNL1        0.0796
     51 C           5.1350   -1.6262    0.0000 C.3     1  UNL1        0.1880
     52 C           4.2690   -2.1262    0.0000 C.3     1  UNL1        0.1341
     53 C           3.4030   -1.6262    0.0000 C.3     1  UNL1        0.1141
     54 C           4.2690   -0.1262    0.0000 C.3     1  UNL1        0.1130
     55 C           3.4030   -0.6262    0.0000 C.3     1  UNL1        0.1119
     56 C           4.2690    0.8738    0.0000 C.3     1  UNL1        0.0730
     57 H          11.9832    2.3498    0.0000 H       1  UNL1        0.0315
     58 H           9.6363    3.9400    0.0000 H       1  UNL1        0.0313
     59 H           8.8539    2.0628    0.0000 H       1  UNL1        0.0271
     60 H           9.2556    1.3731    0.0000 H       1  UNL1        0.0271
     61 H           9.2557    3.5821    0.0000 H       1  UNL1        0.0268
     62 H           8.8539    2.8923    0.0000 H       1  UNL1        0.0268
     63 H          11.9644   -0.6719    0.0000 H       1  UNL1        0.0357
     64 H          12.7125    1.3172    0.0000 H       1  UNL1        0.0310
     65 H          12.3193    2.0105    0.0000 H       1  UNL1        0.0310
     66 H          12.4161    2.9025    0.0000 H       1  UNL1        0.0271
     67 H          12.8338    3.5828    0.0000 H       1  UNL1        0.0271
     68 H           9.2492    0.5300    0.0000 H       1  UNL1        0.0274
     69 H           8.8368   -0.1536    0.0000 H       1  UNL1        0.0274
     70 H           9.2817    1.8883    0.0000 H       1  UNL1        0.0235
     71 H           8.7733    1.1740    0.0000 H       1  UNL1        0.0235
     72 H           9.4876    0.6655    0.0000 H       1  UNL1        0.0235
     73 H           8.8240   -0.9829    0.0000 H       1  UNL1        0.0276
     74 H           9.2151   -1.6788    0.0000 H       1  UNL1        0.0276
     75 H          11.8556    5.4352    0.0000 H       1  UNL1        0.0599
     76 H          12.6296    0.1154    0.0000 H       1  UNL1        0.0572
     77 H          11.8047    1.9322    0.0000 H       1  UNL1        0.0235
     78 H          12.6550    2.1460    0.0000 H       1  UNL1        0.0235
     79 H          12.4412    2.9964    0.0000 H       1  UNL1        0.0235
     80 H          12.8540    4.4553    0.0000 H       1  UNL1        0.0290
     81 H          12.4682    5.1542    0.0000 H       1  UNL1        0.0290
     82 H           9.4920    1.2339    0.0000 H       1  UNL1        0.0238
     83 H           8.7699    0.7365    0.0000 H       1  UNL1        0.0238
     84 H           9.2673    0.0144    0.0000 H       1  UNL1        0.0238
     85 H          12.7928   -1.7347    0.0000 H       1  UNL1        0.0276
     86 H          12.3857   -1.0480    0.0000 H       1  UNL1        0.0276
     87 H           9.7053   -2.5955    0.0000 H       1  UNL1        0.0276
     88 H          10.0964   -3.2914    0.0000 H       1  UNL1        0.0276
     89 H          10.4575    5.6750    0.0000 H       1  UNL1        0.0563
     90 H           9.7688    6.0762    0.0000 H       1  UNL1        0.0563
     91 H           9.3732    5.2211    0.0000 H       1  UNL1        0.0237
     92 H           8.7508    4.6035    0.0000 H       1  UNL1        0.0237
     93 H           9.3684    3.9811    0.0000 H       1  UNL1        0.0237
     94 H          10.8489   -3.7336    0.0000 H       1  UNL1        0.0271
     95 H          11.6472   -3.7367    0.0000 H       1  UNL1        0.0271
     96 H          11.8666    6.4361    0.0000 H       1  UNL1        0.2098
     97 H          13.1919   -3.3344    0.0000 H       1  UNL1        0.0235
     98 H          13.8095   -2.7120    0.0000 H       1  UNL1        0.0235
     99 H          13.1871   -2.0944    0.0000 H       1  UNL1        0.0235
    100 H          12.1571   -3.8944    0.0000 H       1  UNL1        0.0235
    101 H          13.0049   -4.1181    0.0000 H       1  UNL1        0.0235
    102 H          13.2286   -3.2703    0.0000 H       1  UNL1        0.0235
    103 H           8.5662    6.0071    0.0000 H       1  UNL1        0.2094
    104 H           8.5991   -3.0062    0.0000 H       1  UNL1        0.1085
    105 H           8.5991   -5.2462    0.0000 H       1  UNL1        0.0683
    106 H           7.1962   -5.4361    0.0000 H       1  UNL1        0.0648
    107 H           6.8671   -3.0062    0.0000 H       1  UNL1        0.0647
    108 H           6.3301   -4.3162    0.0000 H       1  UNL1        0.0647
    109 H          10.0021   -4.8162    0.0000 H       1  UNL1        0.2102
    110 H           5.3905   -3.0185    0.0000 H       1  UNL1        0.0587
    111 H           5.7890   -3.7088    0.0000 H       1  UNL1        0.0587
    112 H           7.1962   -6.4361    0.0000 H       1  UNL1        0.2100
    113 H           5.4641   -4.8162    0.0000 H       1  UNL1        0.2100
    114 H           5.1350   -2.2462    0.0000 H       1  UNL1        0.0937
    115 H           3.7320   -2.4362    0.0000 H       1  UNL1        0.0671
    116 H           2.8660   -1.3162    0.0000 H       1  UNL1        0.0648
    117 H           4.8059    0.1838    0.0000 H       1  UNL1        0.0647
    118 H           3.4030   -0.0062    0.0000 H       1  UNL1        0.0647
    119 H           3.7320   -3.4362    0.0000 H       1  UNL1        0.2101
    120 H           4.8796    0.7662    0.0000 H       1  UNL1        0.0584
    121 H           4.4810    1.4565    0.0000 H       1  UNL1        0.0584
    122 H           2.0000   -1.8162    0.0000 H       1  UNL1        0.2100
    123 H           2.0000   -0.4362    0.0000 H       1  UNL1        0.2100
    124 H           3.4030    1.9938    0.0000 H       1  UNL1        0.2095
@<TRIPOS>BOND
     1    31     1    1
     2     1    96    1
     3     2    39    1
     4     2   103    1
     5     3    42    1
     6    45     3    1
     7     4    42    2
     8     5    45    1
     9     5    48    1
    10    46     6    1
    11     6   109    1
    12    47     7    1
    13     7   112    1
    14    49     8    1
    15     8   113    1
    16     9    50    1
    17    51     9    1
    18    10    51    1
    19    10    54    1
    20    52    11    1
    21    11   119    1
    22    53    12    1
    23    12   122    1
    24    55    13    1
    25    13   123    1
    26    14    56    1
    27    14   124    1
    28    15    16    1
    29    15    18    1
    30    15    20    1
    31    15    29    1
    32    16    17    1
    33    16    25    1
    34    16    57    1
    35    17    19    1
    36    17    26    1
    37    17    33    1
    38    18    22    1
    39    18    27    1
    40    18    35    1
    41    19    21    1
    42    19    23    1
    43    19    58    1
    44    20    21    1
    45    20    59    1
    46    20    60    1
    47    21    61    1
    48    21    62    1
    49    22    24    1
    50    22    32    2
    51    23    31    1
    52    23    39    1
    53    23    40    1
    54    24    28    1
    55    24    36    1
    56    24    63    1
    57    25    32    1
    58    25    64    1
    59    25    65    1
    60    26    34    1
    61    26    66    1
    62    26    67    1
    63    27    30    1
    64    27    68    1
    65    27    69    1
    66    28    30    1
    67    28    37    1
    68    28    42    1
    69    29    70    1
    70    29    71    1
    71    29    72    1
    72    30    73    1
    73    30    74    1
    74    31    34    1
    75    31    75    1
    76    32    76    1
    77    33    77    1
    78    33    78    1
    79    33    79    1
    80    34    80    1
    81    34    81    1
    82    35    82    1
    83    35    83    1
    84    35    84    1
    85    36    38    1
    86    36    85    1
    87    36    86    1
    88    37    41    1
    89    37    87    1
    90    37    88    1
    91    38    41    1
    92    38    43    1
    93    38    44    1
    94    39    89    1
    95    39    90    1
    96    40    91    1
    97    40    92    1
    98    40    93    1
    99    41    94    1
   100    41    95    1
   101    43    97    1
   102    43    98    1
   103    43    99    1
   104    44   100    1
   105    44   101    1
   106    44   102    1
   107    45    46    1
   108    45   104    1
   109    46    47    1
   110    46   105    1
   111    47    49    1
   112    47   106    1
   113    48    49    1
   114    48    50    1
   115    48   107    1
   116    49   108    1
   117    50   110    1
   118    50   111    1
   119    51    52    1
   120    51   114    1
   121    52    53    1
   122    52   115    1
   123    53    55    1
   124    53   116    1
   125    54    55    1
   126    54    56    1
   127    54   117    1
   128    55   118    1
   129    56   120    1
   130    56   121    1
