@<TRIPOS>MOLECULE
IMPHY009678
 17 17 0 0 0
SMALL
GASTEIGER

@<TRIPOS>ATOM
      1 O           2.5369    0.2500    0.0000 O.3     1  UNL1       -0.5062
      2 C           4.2690    0.2500    0.0000 C.ar    1  UNL1        0.0159
      3 C           3.4030   -0.2500    0.0000 C.ar    1  UNL1        0.1239
      4 C           5.1350   -0.2500    0.0000 C.ar    1  UNL1       -0.0511
      5 C           3.4030   -1.2500    0.0000 C.ar    1  UNL1       -0.0196
      6 C           5.1350   -1.2500    0.0000 C.ar    1  UNL1       -0.0610
      7 C           4.2690   -1.7500    0.0000 C.ar    1  UNL1       -0.0583
      8 C           4.2690    1.2500    0.0000 C.2     1  UNL1       -0.0582
      9 C           5.1350    1.7500    0.0000 C.2     1  UNL1       -0.0980
     10 H           5.6720    0.0600    0.0000 H       1  UNL1        0.0625
     11 H           2.8660   -1.5600    0.0000 H       1  UNL1        0.0654
     12 H           5.6720   -1.5600    0.0000 H       1  UNL1        0.0618
     13 H           4.2690   -2.3700    0.0000 H       1  UNL1        0.0619
     14 H           3.7320    1.5600    0.0000 H       1  UNL1        0.0619
     15 H           2.0000   -0.0600    0.0000 H       1  UNL1        0.2922
     16 H           5.6720    1.4400    0.0000 H       1  UNL1        0.0535
     17 H           5.1350    2.3700    0.0000 H       1  UNL1        0.0535
@<TRIPOS>BOND
     1     1     3    1
     2     1    15    1
     3     2     3   ar
     4     2     4   ar
     5     2     8    1
     6     3     5   ar
     7     4     6   ar
     8     4    10    1
     9     5     7   ar
    10     5    11    1
    11     6     7   ar
    12     6    12    1
    13     7    13    1
    14     8     9    2
    15     8    14    1
    16     9    16    1
    17     9    17    1
