@<TRIPOS>MOLECULE
IMPHY001704
 162 173 0 0 0
SMALL
GASTEIGER

@<TRIPOS>ATOM
      1 O           9.4230   -5.0780    0.0000 O.3     1  UNL1       -0.3374
      2 O          16.6251    2.6921    0.0000 O.3     1  UNL1       -0.3289
      3 O           6.8883   -4.1764    0.0000 O.3     1  UNL1       -0.4512
      4 O           7.8988   -2.4139    0.0000 O.3     1  UNL1       -0.4501
      5 O          17.5072    0.1506    0.0000 O.3     1  UNL1       -0.4512
      6 O           9.9471   -2.4139    0.0000 O.3     1  UNL1       -0.4487
      7 O          19.2774    1.1475    0.0000 O.3     1  UNL1       -0.4512
      8 O          19.2932    3.1957    0.0000 O.3     1  UNL1       -0.3818
      9 O          17.5193    4.2199    0.0000 O.3     1  UNL1       -0.4287
     10 O          10.9576   -4.1956    0.0000 O.3     1  UNL1       -0.3641
     11 O           6.9071   -6.1674    0.0000 O.3     1  UNL1       -0.4584
     12 O          15.5164    0.1847    0.0000 O.3     1  UNL1       -0.4584
     13 O           5.2002   -5.1837    0.0000 O.2     1  UNL1       -0.2449
     14 O          16.4869   -1.5297    0.0000 O.2     1  UNL1       -0.2449
     15 O           9.3955   -1.5421    0.0000 O.2     1  UNL1       -0.2449
     16 O          11.4438   -3.2857    0.0000 O.2     1  UNL1       -0.2448
     17 O          20.1607    2.6374    0.0000 O.2     1  UNL1       -0.2449
     18 O          12.9471   -2.4255    0.0000 O.3     1  UNL1       -0.4476
     19 O          15.7873    4.2132    0.0000 O.2     1  UNL1       -0.2449
     20 O           6.9148   -5.1675    0.0000 O.2     1  UNL1       -0.2449
     21 O          16.5164    0.1847    0.0000 O.2     1  UNL1       -0.2449
     22 O          17.0132   -4.1836    0.0000 O.3     1  UNL1       -0.5028
     23 O           2.5505   -4.6370    0.0000 O.3     1  UNL1       -0.5028
     24 O          16.0195   -4.1836    0.0000 O.3     1  UNL1       -0.5028
     25 O           2.5428   -5.6306    0.0000 O.3     1  UNL1       -0.5028
     26 O           4.3322   -1.5782    0.0000 O.3     1  UNL1       -0.5032
     27 O          13.9712   -4.1994    0.0000 O.3     1  UNL1       -0.5009
     28 O          20.0856   -2.4255    0.0000 O.3     1  UNL1       -0.5032
     29 O           2.5505   -2.5886    0.0000 O.3     1  UNL1       -0.5009
     30 O          19.0615   -4.1994    0.0000 O.3     1  UNL1       -0.5009
     31 O          13.9538   -0.6973    0.0000 O.3     1  UNL1       -0.5008
     32 O           2.5112   -7.6787    0.0000 O.3     1  UNL1       -0.5009
     33 O           4.2772   -8.7165    0.0000 O.3     1  UNL1       -0.5032
     34 O          10.9605    1.0463    0.0000 O.3     1  UNL1       -0.5032
     35 O          12.9605    1.0386    0.0000 O.3     1  UNL1       -0.5008
     36 O           8.3821    1.9181    0.0000 O.3     1  UNL1       -0.5032
     37 O           5.3888    0.1745    0.0000 O.3     1  UNL1       -0.5032
     38 O          23.6130    1.5974    0.0000 O.3     1  UNL1       -0.5032
     39 O          21.8464   -1.3824    0.0000 O.3     1  UNL1       -0.5032
     40 O           6.3821    1.9104    0.0000 O.3     1  UNL1       -0.5009
     41 O          23.5899   -0.4025    0.0000 O.3     1  UNL1       -0.5009
     42 O          14.9078    7.7098    0.0000 O.3     1  UNL1       -0.5032
     43 O          18.3718    7.7232    0.0000 O.3     1  UNL1       -0.5032
     44 O          16.6360    8.7165    0.0000 O.3     1  UNL1       -0.5009
     45 C           7.8883   -4.1841    0.0000 C.3     1  UNL1        0.1729
     46 C           8.4022   -3.2780    0.0000 C.3     1  UNL1        0.1840
     47 C          17.5072    1.1506    0.0000 C.3     1  UNL1        0.1719
     48 C           8.3816   -5.0539    0.0000 C.3     1  UNL1        0.1361
     49 C          18.4172    1.6575    0.0000 C.3     1  UNL1        0.1741
     50 C           9.4438   -3.2780    0.0000 C.3     1  UNL1        0.1938
     51 C          16.6412    1.6506    0.0000 C.3     1  UNL1        0.1371
     52 C          18.4253    2.6991    0.0000 C.3     1  UNL1        0.1576
     53 C           9.9576   -4.1841    0.0000 C.3     1  UNL1        0.1981
     54 C          17.5232    3.2199    0.0000 C.3     1  UNL1        0.2352
     55 C           7.8750   -5.9161    0.0000 C.3     1  UNL1        0.1226
     56 C          15.7752    1.1506    0.0000 C.3     1  UNL1        0.1226
     57 C           6.0526   -4.6608    0.0000 C.2     1  UNL1        0.3405
     58 C          17.0164   -0.6813    0.0000 C.2     1  UNL1        0.3405
     59 C           8.3955   -1.5460    0.0000 C.2     1  UNL1        0.3399
     60 C          10.9471   -2.4178    0.0000 C.2     1  UNL1        0.3435
     61 C          20.1492    1.6374    0.0000 C.2     1  UNL1        0.3399
     62 C           5.1905   -4.1541    0.0000 C.ar    1  UNL1        0.0740
     63 C          17.5164   -1.5474    0.0000 C.ar    1  UNL1        0.0740
     64 C          16.6514    4.7165    0.0000 C.2     1  UNL1        0.3417
     65 C           6.0449   -5.6608    0.0000 C.2     1  UNL1        0.3401
     66 C          16.0164   -0.6813    0.0000 C.2     1  UNL1        0.3401
     67 C          17.0164   -2.4134    0.0000 C.ar    1  UNL1        0.0458
     68 C           4.3206   -4.6475    0.0000 C.ar    1  UNL1        0.0458
     69 C          11.4504   -1.5537    0.0000 C.ar    1  UNL1        0.1085
     70 C          15.5164   -1.5474    0.0000 C.ar    1  UNL1        0.0740
     71 C          16.0164   -2.4134    0.0000 C.ar    1  UNL1        0.0458
     72 C           7.8921   -0.6819    0.0000 C.ar    1  UNL1        0.0661
     73 C           5.1751   -6.1541    0.0000 C.ar    1  UNL1        0.0740
     74 C           4.3129   -5.6474    0.0000 C.ar    1  UNL1        0.0458
     75 C          21.0093    1.1274    0.0000 C.ar    1  UNL1        0.0661
     76 C           5.2146   -3.1128    0.0000 C.ar    1  UNL1       -0.0017
     77 C          18.5579   -1.5313    0.0000 C.ar    1  UNL1       -0.0017
     78 C          16.6475    5.7165    0.0000 C.ar    1  UNL1        0.0662
     79 C          12.4504   -1.5575    0.0000 C.ar    1  UNL1        0.1876
     80 C          14.4748   -1.5313    0.0000 C.ar    1  UNL1       -0.0009
     81 C          17.5232   -3.3234    0.0000 C.ar    1  UNL1        0.1708
     82 C           3.4146   -4.1336    0.0000 C.ar    1  UNL1        0.1708
     83 C          15.5095   -3.3234    0.0000 C.ar    1  UNL1        0.1708
     84 C          13.9471   -2.4293    0.0000 C.ar    1  UNL1        0.1743
     85 C          10.9538   -0.6857    0.0000 C.ar    1  UNL1        0.0013
     86 C           3.3990   -6.1472    0.0000 C.ar    1  UNL1        0.1708
     87 C           5.1831   -7.1957    0.0000 C.ar    1  UNL1       -0.0017
     88 C           6.8922   -0.6857    0.0000 C.ar    1  UNL1       -0.0023
     89 C           8.3888    0.1861    0.0000 C.ar    1  UNL1       -0.0023
     90 C           4.3206   -2.5781    0.0000 C.ar    1  UNL1        0.1628
     91 C          14.4679   -3.3314    0.0000 C.ar    1  UNL1        0.2021
     92 C          19.0856   -2.4293    0.0000 C.ar    1  UNL1        0.1628
     93 C           3.4146   -3.0920    0.0000 C.ar    1  UNL1        0.2012
     94 C          20.9978    0.1275    0.0000 C.ar    1  UNL1       -0.0023
     95 C          21.8811    1.6174    0.0000 C.ar    1  UNL1       -0.0023
     96 C          18.5648   -3.3314    0.0000 C.ar    1  UNL1        0.2012
     97 C          12.9538   -0.6934    0.0000 C.ar    1  UNL1        0.2060
     98 C           3.3830   -7.1888    0.0000 C.ar    1  UNL1        0.2012
     99 C           4.2810   -7.7165    0.0000 C.ar    1  UNL1        0.1628
    100 C          17.5116    6.2199    0.0000 C.ar    1  UNL1       -0.0023
    101 C          15.7796    6.2132    0.0000 C.ar    1  UNL1       -0.0023
    102 C          11.4571    0.1784    0.0000 C.ar    1  UNL1        0.1630
    103 C          12.4571    0.1745    0.0000 C.ar    1  UNL1        0.2044
    104 C           7.8855    1.0502    0.0000 C.ar    1  UNL1        0.1628
    105 C           6.3888    0.1784    0.0000 C.ar    1  UNL1        0.1628
    106 C          22.7413    1.1074    0.0000 C.ar    1  UNL1        0.1628
    107 C          21.8580   -0.3825    0.0000 C.ar    1  UNL1        0.1628
    108 C           6.8855    1.0463    0.0000 C.ar    1  UNL1        0.2006
    109 C          22.7297    0.1075    0.0000 C.ar    1  UNL1        0.2006
    110 C          15.7757    7.2132    0.0000 C.ar    1  UNL1        0.1628
    111 C          17.5078    7.2198    0.0000 C.ar    1  UNL1        0.1628
    112 C          16.6398    7.7165    0.0000 C.ar    1  UNL1        0.2006
    113 H           7.4633   -3.4480    0.0000 H       1  UNL1        0.0801
    114 H           8.7111   -2.7405    0.0000 H       1  UNL1        0.0812
    115 H          18.2400    0.7200    0.0000 H       1  UNL1        0.0800
    116 H           8.7952   -5.7965    0.0000 H       1  UNL1        0.0670
    117 H          18.4089    1.0375    0.0000 H       1  UNL1        0.0801
    118 H          10.0638   -3.2816    0.0000 H       1  UNL1        0.0825
    119 H          15.9018    2.0699    0.0000 H       1  UNL1        0.0670
    120 H          18.4264    3.3191    0.0000 H       1  UNL1        0.0695
    121 H          10.2604   -4.7252    0.0000 H       1  UNL1        0.0948
    122 H          18.0595    3.5309    0.0000 H       1  UNL1        0.1086
    123 H           7.8702   -6.5361    0.0000 H       1  UNL1        0.0725
    124 H           8.4726   -6.0812    0.0000 H       1  UNL1        0.0725
    125 H          15.6147    1.7495    0.0000 H       1  UNL1        0.0725
    126 H          15.1552    1.1506    0.0000 H       1  UNL1        0.0725
    127 H          19.2956    3.8157    0.0000 H       1  UNL1        0.2102
    128 H          11.2613   -4.7361    0.0000 H       1  UNL1        0.2126
    129 H           5.7574   -2.8132    0.0000 H       1  UNL1        0.0664
    130 H          18.8616   -0.9908    0.0000 H       1  UNL1        0.0664
    131 H          14.1711   -0.9908    0.0000 H       1  UNL1        0.0664
    132 H          10.3338   -0.6833    0.0000 H       1  UNL1        0.0665
    133 H           5.7212   -7.5036    0.0000 H       1  UNL1        0.0664
    134 H           6.5842   -1.2239    0.0000 H       1  UNL1        0.0663
    135 H           9.0088    0.1885    0.0000 H       1  UNL1        0.0663
    136 H          20.4573   -0.1762    0.0000 H       1  UNL1        0.0663
    137 H          21.8883    2.2374    0.0000 H       1  UNL1        0.0663
    138 H          18.0497    5.9119    0.0000 H       1  UNL1        0.0663
    139 H          15.2438    5.9011    0.0000 H       1  UNL1        0.0663
    140 H          17.3170   -4.7241    0.0000 H       1  UNL1        0.2923
    141 H           2.0123   -4.3290    0.0000 H       1  UNL1        0.2923
    142 H          15.7157   -4.7241    0.0000 H       1  UNL1        0.2923
    143 H           2.0000   -5.9302    0.0000 H       1  UNL1        0.2923
    144 H          13.3513   -4.2018    0.0000 H       1  UNL1        0.2924
    145 H           3.7989   -1.2620    0.0000 H       1  UNL1        0.2923
    146 H          20.3935   -1.8874    0.0000 H       1  UNL1        0.2923
    147 H           2.5529   -1.9686    0.0000 H       1  UNL1        0.2924
    148 H          19.6815   -4.2018    0.0000 H       1  UNL1        0.2924
    149 H          14.2658   -0.1616    0.0000 H       1  UNL1        0.2924
    150 H           2.5041   -8.2987    0.0000 H       1  UNL1        0.2924
    151 H           4.8129   -9.0286    0.0000 H       1  UNL1        0.2923
    152 H          10.3405    1.0487    0.0000 H       1  UNL1        0.2923
    153 H          12.6525    1.5767    0.0000 H       1  UNL1        0.2924
    154 H           8.0701    2.4538    0.0000 H       1  UNL1        0.2923
    155 H           5.0768    0.7102    0.0000 H       1  UNL1        0.2923
    156 H          23.6202    2.2173    0.0000 H       1  UNL1        0.2923
    157 H          22.3797   -1.6986    0.0000 H       1  UNL1        0.2923
    158 H           6.6901    2.4485    0.0000 H       1  UNL1        0.2924
    159 H          24.1304   -0.0987    0.0000 H       1  UNL1        0.2924
    160 H          14.9054    8.3298    0.0000 H       1  UNL1        0.2923
    161 H          18.9100    7.4152    0.0000 H       1  UNL1        0.2923
    162 H          17.1717    9.0286    0.0000 H       1  UNL1        0.2924
@<TRIPOS>BOND
     1     1    48    1
     2     1    53    1
     3     2    51    1
     4     2    54    1
     5     3    45    1
     6     3    57    1
     7    46     4    1
     8     4    59    1
     9     5    47    1
    10     5    58    1
    11    50     6    1
    12     6    60    1
    13    49     7    1
    14     7    61    1
    15    52     8    1
    16     8   127    1
    17    54     9    1
    18     9    64    1
    19    53    10    1
    20    10   128    1
    21    11    55    1
    22    11    65    1
    23    12    56    1
    24    12    66    1
    25    13    57    2
    26    14    58    2
    27    15    59    2
    28    16    60    2
    29    17    61    2
    30    18    79    1
    31    18    84    1
    32    19    64    2
    33    20    65    2
    34    21    66    2
    35    22    81    1
    36    22   140    1
    37    23    82    1
    38    23   141    1
    39    24    83    1
    40    24   142    1
    41    25    86    1
    42    25   143    1
    43    26    90    1
    44    26   145    1
    45    27    91    1
    46    27   144    1
    47    28    92    1
    48    28   146    1
    49    29    93    1
    50    29   147    1
    51    30    96    1
    52    30   148    1
    53    31    97    1
    54    31   149    1
    55    32    98    1
    56    32   150    1
    57    33    99    1
    58    33   151    1
    59    34   102    1
    60    34   152    1
    61    35   103    1
    62    35   153    1
    63    36   104    1
    64    36   154    1
    65    37   105    1
    66    37   155    1
    67    38   106    1
    68    38   156    1
    69    39   107    1
    70    39   157    1
    71    40   108    1
    72    40   158    1
    73    41   109    1
    74    41   159    1
    75    42   110    1
    76    42   160    1
    77    43   111    1
    78    43   161    1
    79    44   112    1
    80    44   162    1
    81    45    46    1
    82    45    48    1
    83    45   113    1
    84    46    50    1
    85    46   114    1
    86    47    49    1
    87    47    51    1
    88    47   115    1
    89    48    55    1
    90    48   116    1
    91    49    52    1
    92    49   117    1
    93    50    53    1
    94    50   118    1
    95    51    56    1
    96    51   119    1
    97    52    54    1
    98    52   120    1
    99    53   121    1
   100    54   122    1
   101    55   123    1
   102    55   124    1
   103    56   125    1
   104    56   126    1
   105    57    62    1
   106    58    63    1
   107    59    72    1
   108    60    69    1
   109    61    75    1
   110    62    68   ar
   111    62    76   ar
   112    63    67   ar
   113    63    77   ar
   114    64    78    1
   115    65    73    1
   116    66    70    1
   117    67    71    1
   118    67    81   ar
   119    68    74    1
   120    68    82   ar
   121    69    79   ar
   122    69    85   ar
   123    70    71   ar
   124    70    80   ar
   125    71    83   ar
   126    72    88   ar
   127    72    89   ar
   128    73    74   ar
   129    73    87   ar
   130    74    86   ar
   131    75    94   ar
   132    75    95   ar
   133    76    90   ar
   134    76   129    1
   135    77    92   ar
   136    77   130    1
   137    78   100   ar
   138    78   101   ar
   139    79    97   ar
   140    80    84   ar
   141    80   131    1
   142    81    96   ar
   143    82    93   ar
   144    83    91   ar
   145    84    91   ar
   146    85   102   ar
   147    85   132    1
   148    86    98   ar
   149    87    99   ar
   150    87   133    1
   151    88   105   ar
   152    88   134    1
   153    89   104   ar
   154    89   135    1
   155    90    93   ar
   156    92    96   ar
   157    94   107   ar
   158    94   136    1
   159    95   106   ar
   160    95   137    1
   161    97   103   ar
   162    98    99   ar
   163   100   111   ar
   164   100   138    1
   165   101   110   ar
   166   101   139    1
   167   102   103   ar
   168   104   108   ar
   169   105   108   ar
   170   106   109   ar
   171   107   109   ar
   172   110   112   ar
   173   111   112   ar
