@<TRIPOS>MOLECULE
IMPHY005601
 38 40 0 0 0
SMALL
GASTEIGER

@<TRIPOS>ATOM
      1 O           6.0682   -0.1754    0.0000 O.2     1  UNL1       -0.4544
      2 O          10.3984    0.3246    0.0000 O.3     1  UNL1       -0.4913
      3 O           8.6663   -2.6754    0.0000 O.3     1  UNL1       -0.4913
      4 O           4.3198    2.8592    0.0000 O.3     1  UNL1       -0.5058
      5 O           6.0682    2.8246    0.0000 O.2     1  UNL1       -0.2869
      6 O          10.3984   -1.6754    0.0000 O.3     1  UNL1       -0.5009
      7 O           2.5381   -0.1995    0.0000 O.3     1  UNL1       -0.5065
      8 C           6.9343    0.3246    0.0000 C.ar    1  UNL1        0.1395
      9 C           7.8003   -0.1754    0.0000 C.ar    1  UNL1        0.0245
     10 C           5.2022    1.3246    0.0000 C.ar    1  UNL1        0.1055
     11 C           5.2022    0.3246    0.0000 C.ar    1  UNL1        0.1462
     12 C           6.9343    1.3246    0.0000 C.ar    1  UNL1        0.0288
     13 C           6.0682    1.8246    0.0000 C.ar    1  UNL1        0.1966
     14 C           7.8003   -1.1754    0.0000 C.ar    1  UNL1       -0.0054
     15 C           8.6663    0.3246    0.0000 C.ar    1  UNL1       -0.0054
     16 C           4.3083    1.8593    0.0000 C.ar    1  UNL1        0.1347
     17 C           9.5323   -0.1754    0.0000 C.ar    1  UNL1        0.1656
     18 C           8.6663   -1.6754    0.0000 C.ar    1  UNL1        0.1656
     19 C           4.3083   -0.2101    0.0000 C.ar    1  UNL1        0.0231
     20 C           9.5323   -1.1754    0.0000 C.ar    1  UNL1        0.2010
     21 C           3.4022    0.3038    0.0000 C.ar    1  UNL1        0.1239
     22 C           3.4022    1.3454    0.0000 C.ar    1  UNL1        0.0223
     23 C          10.3984    1.3246    0.0000 C.3     1  UNL1        0.0790
     24 C           7.8003   -3.1754    0.0000 C.3     1  UNL1        0.0790
     25 H           7.4712    1.6346    0.0000 H       1  UNL1        0.0693
     26 H           7.2634   -1.4854    0.0000 H       1  UNL1        0.0662
     27 H           8.6663    0.9446    0.0000 H       1  UNL1        0.0662
     28 H           4.3154   -0.8300    0.0000 H       1  UNL1        0.0691
     29 H           2.8665    1.6575    0.0000 H       1  UNL1        0.0691
     30 H           3.7865    3.1754    0.0000 H       1  UNL1        0.2922
     31 H          10.9353   -1.3654    0.0000 H       1  UNL1        0.2924
     32 H           2.0000    0.1084    0.0000 H       1  UNL1        0.2921
     33 H          11.0184    1.3246    0.0000 H       1  UNL1        0.0660
     34 H          10.3984    1.9446    0.0000 H       1  UNL1        0.0660
     35 H           9.7784    1.3246    0.0000 H       1  UNL1        0.0660
     36 H           7.4903   -2.6385    0.0000 H       1  UNL1        0.0660
     37 H           7.2634   -3.4854    0.0000 H       1  UNL1        0.0660
     38 H           8.1103   -3.7123    0.0000 H       1  UNL1        0.0660
@<TRIPOS>BOND
     1     1     8   ar
     2     1    11   ar
     3     2    17    1
     4     2    23    1
     5     3    18    1
     6     3    24    1
     7     4    16    1
     8     4    30    1
     9     5    13    2
    10     6    20    1
    11     6    31    1
    12     7    21    1
    13     7    32    1
    14     8     9    1
    15     8    12   ar
    16     9    14   ar
    17     9    15   ar
    18    10    11   ar
    19    10    13   ar
    20    10    16   ar
    21    11    19   ar
    22    12    13   ar
    23    12    25    1
    24    14    18   ar
    25    14    26    1
    26    15    17   ar
    27    15    27    1
    28    16    22   ar
    29    17    20   ar
    30    18    20   ar
    31    19    21   ar
    32    19    28    1
    33    21    22   ar
    34    22    29    1
    35    23    33    1
    36    23    34    1
    37    23    35    1
    38    24    36    1
    39    24    37    1
    40    24    38    1
