@<TRIPOS>MOLECULE
IMPHY002967
 29 29 0 0 0
SMALL
GASTEIGER

@<TRIPOS>ATOM
      1 O           4.5981   -1.0600    0.0000 O.3     1  UNL1       -0.4880
      2 O           5.4641    3.4400    0.0000 O.3     1  UNL1       -0.4771
      3 O           3.7320    3.4400    0.0000 O.2     1  UNL1       -0.2451
      4 C           3.7320   -1.5600    0.0000 C.3     1  UNL1        0.1080
      5 C           4.5981   -0.0600    0.0000 C.ar    1  UNL1        0.1210
      6 C           2.8660   -3.0600    0.0000 C.2     1  UNL1       -0.0765
      7 C           3.7320   -2.5600    0.0000 C.2     1  UNL1       -0.0484
      8 C           5.4641    0.4400    0.0000 C.ar    1  UNL1       -0.0192
      9 C           3.7320    0.4400    0.0000 C.ar    1  UNL1       -0.0192
     10 C           4.5981    1.9400    0.0000 C.ar    1  UNL1        0.0591
     11 C           5.4641    1.4400    0.0000 C.ar    1  UNL1       -0.0443
     12 C           3.7320    1.4400    0.0000 C.ar    1  UNL1       -0.0443
     13 C           2.8660   -4.0600    0.0000 C.3     1  UNL1       -0.0439
     14 C           2.0000   -2.5600    0.0000 C.3     1  UNL1       -0.0439
     15 C           4.5981    2.9400    0.0000 C.2     1  UNL1        0.3368
     16 H           3.5200   -0.9774    0.0000 H       1  UNL1        0.0742
     17 H           3.1215   -1.6677    0.0000 H       1  UNL1        0.0742
     18 H           4.2690   -2.8700    0.0000 H       1  UNL1        0.0605
     19 H           6.0010    0.1300    0.0000 H       1  UNL1        0.0654
     20 H           3.1951    0.1300    0.0000 H       1  UNL1        0.0654
     21 H           6.0010    1.7500    0.0000 H       1  UNL1        0.0627
     22 H           3.1951    1.7500    0.0000 H       1  UNL1        0.0627
     23 H           2.3100   -2.0231    0.0000 H       1  UNL1        0.0274
     24 H           1.4631   -2.2500    0.0000 H       1  UNL1        0.0274
     25 H           2.2460   -4.0600    0.0000 H       1  UNL1        0.0274
     26 H           2.8660   -4.6800    0.0000 H       1  UNL1        0.0274
     27 H           3.4860   -4.0600    0.0000 H       1  UNL1        0.0274
     28 H           1.6900   -3.0969    0.0000 H       1  UNL1        0.0274
     29 H           5.4641    4.0600    0.0000 H       1  UNL1        0.2954
@<TRIPOS>BOND
     1     1     4    1
     2     1     5    1
     3     2    15    1
     4     2    29    1
     5     3    15    2
     6     4     7    1
     7     4    16    1
     8     4    17    1
     9     5     8   ar
    10     5     9   ar
    11     6     7    2
    12     6    13    1
    13     6    14    1
    14     7    18    1
    15     8    11   ar
    16     8    19    1
    17     9    12   ar
    18     9    20    1
    19    10    11   ar
    20    10    12   ar
    21    10    15    1
    22    11    21    1
    23    12    22    1
    24    13    25    1
    25    13    26    1
    26    13    27    1
    27    14    23    1
    28    14    24    1
    29    14    28    1
