@<TRIPOS>MOLECULE
IMPHY014449
 42 44 0 0 0
SMALL
GASTEIGER

@<TRIPOS>ATOM
      1 O           2.0000   -2.8775    0.0000 O.2     1  UNL1       -0.2679
      2 N           6.0616   -1.6517    0.0000 N.3     1  UNL1       -0.2951
      3 N           2.9812   -1.4041    0.0000 N.ar    1  UNL1       -0.3259
      4 C           5.9744   -0.6555    0.0000 C.3     1  UNL1        0.0738
      5 C           6.2332    0.3104    0.0000 C.3     1  UNL1        0.0058
      6 C           5.4966    1.2930    0.0000 C.2     1  UNL1       -0.0418
      7 C           7.2460   -1.4502    0.0000 C.3     1  UNL1       -0.0053
      8 C           4.7533   -1.5212    0.0000 C.ar    1  UNL1       -0.0034
      9 C           4.1999   -0.0007    0.0000 C.3     1  UNL1       -0.0020
     10 C           3.9243   -0.9620    0.0000 C.ar    1  UNL1        0.0252
     11 C           8.0232   -0.8208    0.0000 C.2     1  UNL1       -0.0736
     12 C           7.6648    0.1128    0.0000 C.2     1  UNL1       -0.0774
     13 C           4.9966    2.1591    0.0000 C.2     1  UNL1       -0.0852
     14 C           4.6967   -2.5613    0.0000 C.ar    1  UNL1       -0.0497
     15 C           6.9678   -2.0743    0.0000 C.3     1  UNL1       -0.0119
     16 C           5.2424   -2.2253    0.0000 C.3     1  UNL1       -0.0119
     17 C           8.9891   -1.0796    0.0000 C.3     1  UNL1       -0.0437
     18 C           3.7640   -3.0251    0.0000 C.ar    1  UNL1        0.0031
     19 C           2.9005   -2.4426    0.0000 C.ar    1  UNL1        0.2489
     20 C           5.4966    3.0251    0.0000 C.3     1  UNL1       -0.0465
     21 H           6.2377   -0.3096    0.0000 H       1  UNL1        0.0392
     22 H           6.8615   -1.9365    0.0000 H       1  UNL1        0.0334
     23 H           7.6870   -1.8860    0.0000 H       1  UNL1        0.0334
     24 H           4.1949    0.6193    0.0000 H       1  UNL1        0.0336
     25 H           3.5856    0.0831    0.0000 H       1  UNL1        0.0336
     26 H           8.0502    0.5984    0.0000 H       1  UNL1        0.0578
     27 H           4.3766    2.1591    0.0000 H       1  UNL1        0.0570
     28 H           5.2147   -2.9020    0.0000 H       1  UNL1        0.0623
     29 H           2.4712   -1.0515    0.0000 H       1  UNL1        0.1686
     30 H           6.7058   -2.6362    0.0000 H       1  UNL1        0.0391
     31 H           7.5297   -2.3364    0.0000 H       1  UNL1        0.0391
     32 H           7.2298   -1.5124    0.0000 H       1  UNL1        0.0391
     33 H           4.8868   -1.7174    0.0000 H       1  UNL1        0.0391
     34 H           4.7345   -2.5809    0.0000 H       1  UNL1        0.0391
     35 H           5.5980   -2.7332    0.0000 H       1  UNL1        0.0391
     36 H           8.8286   -1.6785    0.0000 H       1  UNL1        0.0274
     37 H           9.5880   -1.2401    0.0000 H       1  UNL1        0.0274
     38 H           9.1496   -0.4808    0.0000 H       1  UNL1        0.0274
     39 H           3.7232   -3.6437    0.0000 H       1  UNL1        0.0672
     40 H           6.0335    2.7151    0.0000 H       1  UNL1        0.0272
     41 H           5.8066    3.5620    0.0000 H       1  UNL1        0.0272
     42 H           4.9596    3.3351    0.0000 H       1  UNL1        0.0272
@<TRIPOS>BOND
     1     1    19    2
     2     2     4    1
     3     2    15    1
     4     2    16    1
     5     3    10   ar
     6     3    19   ar
     7     3    29    1
     8     4     6    1
     9     4     7    1
    10     4     8    1
    11     5     6    1
    12     5     9    1
    13     5    12    1
    14     5    21    1
    15     6    13    2
    16     7    11    1
    17     7    22    1
    18     7    23    1
    19     8    10   ar
    20     8    14   ar
    21     9    10    1
    22     9    24    1
    23     9    25    1
    24    11    12    2
    25    11    17    1
    26    12    26    1
    27    13    20    1
    28    13    27    1
    29    14    18   ar
    30    14    28    1
    31    15    30    1
    32    15    31    1
    33    15    32    1
    34    16    33    1
    35    16    34    1
    36    16    35    1
    37    17    36    1
    38    17    37    1
    39    17    38    1
    40    18    19   ar
    41    18    39    1
    42    20    40    1
    43    20    41    1
    44    20    42    1
