@<TRIPOS>MOLECULE
IMPHY010290
 136 143 0 0 0
SMALL
GASTEIGER

@<TRIPOS>ATOM
      1 O           9.4651    0.5900    0.0000 O.3     1  UNL1       -0.3448
      2 O          11.2862   -1.1808    0.0000 O.3     1  UNL1       -0.3944
      3 O          18.3783    3.7109    0.0000 O.3     1  UNL1       -0.4802
      4 O          17.5296    2.2010    0.0000 O.2     1  UNL1       -0.2504
      5 O           8.5991    2.0900    0.0000 O.3     1  UNL1       -0.3461
      6 O           7.7331   -0.4100    0.0000 O.3     1  UNL1       -0.3378
      7 O           6.0010    0.5900    0.0000 O.3     1  UNL1       -0.3864
      8 O           6.0010    2.5900    0.0000 O.3     1  UNL1       -0.3869
      9 O           6.0010   -0.4100    0.0000 O.3     1  UNL1       -0.3431
     10 O           7.7331   -2.4100    0.0000 O.3     1  UNL1       -0.3841
     11 O           6.0010   -3.4100    0.0000 O.3     1  UNL1       -0.3401
     12 O           4.2690   -2.4100    0.0000 O.3     1  UNL1       -0.3866
     13 O           4.2690   -3.4100    0.0000 O.3     1  UNL1       -0.3461
     14 O           6.0010   -5.4100    0.0000 O.3     1  UNL1       -0.3841
     15 O           4.2690   -6.4100    0.0000 O.3     1  UNL1       -0.3864
     16 O           2.5369   -5.4100    0.0000 O.3     1  UNL1       -0.3869
     17 C          13.9862    2.1598    0.0000 C.3     1  UNL1       -0.0194
     18 C          13.1182    2.6565    0.0000 C.3     1  UNL1       -0.0257
     19 C          12.2102    2.1461    0.0000 C.3     1  UNL1       -0.0249
     20 C          14.8503    2.6631    0.0000 C.3     1  UNL1       -0.0051
     21 C          12.2062    1.1045    0.0000 C.3     1  UNL1       -0.0255
     22 C          14.0063    1.1184    0.0000 C.3     1  UNL1       -0.0463
     23 C          11.2729    0.5512    0.0000 C.3     1  UNL1        0.0206
     24 C          13.1103    0.5872    0.0000 C.3     1  UNL1       -0.0485
     25 C          14.8464    3.6631    0.0000 C.2     1  UNL1       -0.0629
     26 C          11.2812    2.7066    0.0000 C.3     1  UNL1       -0.0447
     27 C          13.1144    3.6564    0.0000 C.3     1  UNL1       -0.0306
     28 C          15.7383    4.2012    0.0000 C.3     1  UNL1       -0.0031
     29 C          15.7463    2.1319    0.0000 C.3     1  UNL1       -0.0424
     30 C          16.6463    3.6909    0.0000 C.3     1  UNL1        0.0741
     31 C          10.3312    1.0900    0.0000 C.3     1  UNL1        0.0695
     32 C          14.6319    1.3962    0.0000 C.3     1  UNL1       -0.0585
     33 C          16.6503    2.6493    0.0000 C.3     1  UNL1       -0.0359
     34 C          12.2140    3.1461    0.0000 C.3     1  UNL1       -0.0590
     35 C          10.3353    2.1750    0.0000 C.3     1  UNL1       -0.0254
     36 C          13.9785    4.1598    0.0000 C.2     1  UNL1       -0.0836
     37 C          15.1959    1.7248    0.0000 C.3     1  UNL1       -0.0553
     38 C          15.7090    5.2858    0.0000 C.3     1  UNL1       -0.0403
     39 C          17.5881    4.2298    0.0000 C.3     1  UNL1       -0.0362
     40 C          16.6380    5.8463    0.0000 C.3     1  UNL1       -0.0343
     41 C          11.7795   -0.3110    0.0000 C.3     1  UNL1        0.0522
     42 C          10.7796   -0.3187    0.0000 C.3     1  UNL1       -0.0548
     43 C          17.5839    5.3147    0.0000 C.3     1  UNL1       -0.0468
     44 C          17.5181    3.2009    0.0000 C.2     1  UNL1        0.3115
     45 C          17.1246    6.7200    0.0000 C.3     1  UNL1       -0.0598
     46 C          16.1247    6.7046    0.0000 C.3     1  UNL1       -0.0598
     47 C           8.5991    1.0900    0.0000 C.3     1  UNL1        0.1882
     48 C           7.7331    0.5900    0.0000 C.3     1  UNL1        0.1406
     49 C           6.8671    1.0900    0.0000 C.3     1  UNL1        0.1141
     50 C           7.7331    2.5900    0.0000 C.3     1  UNL1        0.0792
     51 C           6.8671    2.0900    0.0000 C.3     1  UNL1        0.1069
     52 C           6.8671   -0.9100    0.0000 C.3     1  UNL1        0.1884
     53 C           6.8671   -1.9100    0.0000 C.3     1  UNL1        0.1345
     54 C           6.0010   -2.4100    0.0000 C.3     1  UNL1        0.1205
     55 C           5.1350   -0.9100    0.0000 C.3     1  UNL1        0.0873
     56 C           5.1350   -1.9100    0.0000 C.3     1  UNL1        0.1098
     57 C           4.2690   -0.4100    0.0000 C.3     1  UNL1       -0.0361
     58 C           5.1350   -3.9100    0.0000 C.3     1  UNL1        0.1880
     59 C           5.1350   -4.9100    0.0000 C.3     1  UNL1        0.1341
     60 C           4.2690   -5.4100    0.0000 C.3     1  UNL1        0.1137
     61 C           3.4030   -3.9100    0.0000 C.3     1  UNL1        0.0792
     62 C           3.4030   -4.9100    0.0000 C.3     1  UNL1        0.1069
     63 H          13.8527    3.0843    0.0000 H       1  UNL1        0.0315
     64 H          12.2127    0.2545    0.0000 H       1  UNL1        0.0313
     65 H          14.2265    0.5388    0.0000 H       1  UNL1        0.0271
     66 H          14.6150    1.2362    0.0000 H       1  UNL1        0.0271
     67 H          12.7148    0.1097    0.0000 H       1  UNL1        0.0268
     68 H          13.5130    0.1158    0.0000 H       1  UNL1        0.0268
     69 H          11.6876    3.1748    0.0000 H       1  UNL1        0.0271
     70 H          10.8894    3.1872    0.0000 H       1  UNL1        0.0271
     71 H          12.9001    4.2382    0.0000 H       1  UNL1        0.0310
     72 H          12.5042    3.5464    0.0000 H       1  UNL1        0.0310
     73 H          16.4661    4.6403    0.0000 H       1  UNL1        0.0357
     74 H          15.3435    1.6606    0.0000 H       1  UNL1        0.0274
     75 H          16.1417    1.6544    0.0000 H       1  UNL1        0.0274
     76 H           9.7948    1.4011    0.0000 H       1  UNL1        0.0603
     77 H          14.1585    0.9959    0.0000 H       1  UNL1        0.0235
     78 H          15.0323    0.9228    0.0000 H       1  UNL1        0.0235
     79 H          15.1053    1.7966    0.0000 H       1  UNL1        0.0235
     80 H          16.8617    2.0664    0.0000 H       1  UNL1        0.0276
     81 H          17.2608    2.7577    0.0000 H       1  UNL1        0.0276
     82 H          12.8340    3.1437    0.0000 H       1  UNL1        0.0235
     83 H          12.2164    3.7661    0.0000 H       1  UNL1        0.0235
     84 H          11.5941    3.1485    0.0000 H       1  UNL1        0.0235
     85 H          10.1285    2.7595    0.0000 H       1  UNL1        0.0290
     86 H           9.7241    2.0713    0.0000 H       1  UNL1        0.0290
     87 H          13.9761    4.7798    0.0000 H       1  UNL1        0.0572
     88 H          14.6141    1.5105    0.0000 H       1  UNL1        0.0238
     89 H          15.4102    1.1430    0.0000 H       1  UNL1        0.0238
     90 H          15.7777    1.9391    0.0000 H       1  UNL1        0.0238
     91 H          15.4843    5.8637    0.0000 H       1  UNL1        0.0276
     92 H          15.1012    5.1633    0.0000 H       1  UNL1        0.0276
     93 H          17.7994    3.6469    0.0000 H       1  UNL1        0.0276
     94 H          18.1985    4.3382    0.0000 H       1  UNL1        0.0276
     95 H          12.2575   -0.7058    0.0000 H       1  UNL1        0.0563
     96 H          12.2514    0.0912    0.0000 H       1  UNL1        0.0563
     97 H          10.2403   -0.0128    0.0000 H       1  UNL1        0.0237
     98 H          10.4737   -0.8580    0.0000 H       1  UNL1        0.0237
     99 H          11.3189   -0.6245    0.0000 H       1  UNL1        0.0237
    100 H          18.1951    5.2110    0.0000 H       1  UNL1        0.0271
    101 H          17.7907    5.8992    0.0000 H       1  UNL1        0.0271
    102 H          17.6663    6.4183    0.0000 H       1  UNL1        0.0235
    103 H          17.4263    7.2616    0.0000 H       1  UNL1        0.0235
    104 H          16.6568    7.0228    0.0000 H       1  UNL1        0.0235
    105 H          15.8065    7.2366    0.0000 H       1  UNL1        0.0235
    106 H          16.5830    7.0216    0.0000 H       1  UNL1        0.0235
    107 H          15.5926    6.3863    0.0000 H       1  UNL1        0.0235
    108 H           8.5991    0.4700    0.0000 H       1  UNL1        0.0937
    109 H          11.6004   -1.7154    0.0000 H       1  UNL1        0.2094
    110 H          18.9188    3.4071    0.0000 H       1  UNL1        0.2951
    111 H           7.1962    0.2800    0.0000 H       1  UNL1        0.0675
    112 H           6.3301    1.4000    0.0000 H       1  UNL1        0.0648
    113 H           8.1316    3.0650    0.0000 H       1  UNL1        0.0587
    114 H           7.3346    3.0650    0.0000 H       1  UNL1        0.0587
    115 H           6.8671    2.7100    0.0000 H       1  UNL1        0.0643
    116 H           7.4040   -1.2200    0.0000 H       1  UNL1        0.0938
    117 H           5.4641    0.9000    0.0000 H       1  UNL1        0.2100
    118 H           6.0010    3.2100    0.0000 H       1  UNL1        0.2100
    119 H           6.8671   -2.5300    0.0000 H       1  UNL1        0.0671
    120 H           5.4641   -2.7200    0.0000 H       1  UNL1        0.0651
    121 H           5.1350   -0.2900    0.0000 H       1  UNL1        0.0621
    122 H           4.5981   -1.6000    0.0000 H       1  UNL1        0.0646
    123 H           8.2700   -2.1000    0.0000 H       1  UNL1        0.2101
    124 H           4.5790    0.1270    0.0000 H       1  UNL1        0.0255
    125 H           3.7320   -0.1000    0.0000 H       1  UNL1        0.0255
    126 H           3.9590   -0.9469    0.0000 H       1  UNL1        0.0255
    127 H           3.7320   -2.1000    0.0000 H       1  UNL1        0.2100
    128 H           5.1350   -3.2900    0.0000 H       1  UNL1        0.0937
    129 H           5.1350   -5.5300    0.0000 H       1  UNL1        0.0671
    130 H           3.7320   -5.7200    0.0000 H       1  UNL1        0.0647
    131 H           3.1909   -3.3274    0.0000 H       1  UNL1        0.0587
    132 H           2.7924   -4.0176    0.0000 H       1  UNL1        0.0587
    133 H           2.8660   -4.6000    0.0000 H       1  UNL1        0.0643
    134 H           6.0010   -6.0300    0.0000 H       1  UNL1        0.2101
    135 H           3.7320   -6.7200    0.0000 H       1  UNL1        0.2100
    136 H           2.0000   -5.1000    0.0000 H       1  UNL1        0.2100
@<TRIPOS>BOND
     1    31     1    1
     2    47     1    1
     3     2    41    1
     4     2   109    1
     5     3    44    1
     6     3   110    1
     7     4    44    2
     8     5    47    1
     9     5    50    1
    10    48     6    1
    11    52     6    1
    12    49     7    1
    13     7   117    1
    14    51     8    1
    15     8   118    1
    16     9    52    1
    17     9    55    1
    18    53    10    1
    19    10   123    1
    20    54    11    1
    21    58    11    1
    22    56    12    1
    23    12   127    1
    24    13    58    1
    25    13    61    1
    26    59    14    1
    27    14   134    1
    28    60    15    1
    29    15   135    1
    30    62    16    1
    31    16   136    1
    32    17    18    1
    33    17    20    1
    34    17    22    1
    35    17    32    1
    36    18    19    1
    37    18    27    1
    38    18    63    1
    39    19    21    1
    40    19    26    1
    41    19    34    1
    42    20    25    1
    43    20    29    1
    44    20    37    1
    45    21    23    1
    46    21    24    1
    47    21    64    1
    48    22    24    1
    49    22    65    1
    50    22    66    1
    51    23    31    1
    52    23    41    1
    53    23    42    1
    54    24    67    1
    55    24    68    1
    56    25    28    1
    57    25    36    2
    58    26    35    1
    59    26    69    1
    60    26    70    1
    61    27    36    1
    62    27    71    1
    63    27    72    1
    64    28    30    1
    65    28    38    1
    66    28    73    1
    67    29    33    1
    68    29    74    1
    69    29    75    1
    70    30    33    1
    71    30    39    1
    72    30    44    1
    73    31    35    1
    74    31    76    1
    75    32    77    1
    76    32    78    1
    77    32    79    1
    78    33    80    1
    79    33    81    1
    80    34    82    1
    81    34    83    1
    82    34    84    1
    83    35    85    1
    84    35    86    1
    85    36    87    1
    86    37    88    1
    87    37    89    1
    88    37    90    1
    89    38    40    1
    90    38    91    1
    91    38    92    1
    92    39    43    1
    93    39    93    1
    94    39    94    1
    95    40    43    1
    96    40    45    1
    97    40    46    1
    98    41    95    1
    99    41    96    1
   100    42    97    1
   101    42    98    1
   102    42    99    1
   103    43   100    1
   104    43   101    1
   105    45   102    1
   106    45   103    1
   107    45   106    1
   108    46   104    1
   109    46   105    1
   110    46   107    1
   111    47    48    1
   112    47   108    1
   113    48    49    1
   114    48   111    1
   115    49    51    1
   116    49   112    1
   117    50    51    1
   118    50   113    1
   119    50   114    1
   120    51   115    1
   121    52    53    1
   122    52   116    1
   123    53    54    1
   124    53   119    1
   125    54    56    1
   126    54   120    1
   127    55    56    1
   128    55    57    1
   129    55   121    1
   130    56   122    1
   131    57   124    1
   132    57   125    1
   133    57   126    1
   134    58    59    1
   135    58   128    1
   136    59    60    1
   137    59   129    1
   138    60    62    1
   139    60   130    1
   140    61    62    1
   141    61   131    1
   142    61   132    1
   143    62   133    1
