@<TRIPOS>MOLECULE
IMPHY004418
 43 45 0 0 0
SMALL
GASTEIGER

@<TRIPOS>ATOM
      1 O          14.2045    0.0547    0.0000 O.3     1  UNL1       -0.4526
      2 O          14.2045   -1.5547    0.0000 O.3     1  UNL1       -0.4526
      3 O           2.8660    1.7500    0.0000 O.3     1  UNL1       -0.4951
      4 O           8.9282    1.2500    0.0000 O.2     1  UNL1       -0.2708
      5 N           8.0622   -0.2500    0.0000 N.am    1  UNL1       -0.3115
      6 C           6.3301   -0.2500    0.0000 C.3     1  UNL1       -0.0120
      7 C           7.1962    0.2500    0.0000 C.3     1  UNL1        0.0159
      8 C           5.4641    0.2500    0.0000 C.ar    1  UNL1       -0.0457
      9 C          13.2583   -0.2500    0.0000 C.ar    1  UNL1        0.1668
     10 C          13.2583   -1.2500    0.0000 C.ar    1  UNL1        0.1663
     11 C          11.5263   -0.2500    0.0000 C.ar    1  UNL1       -0.0212
     12 C           5.4641    1.2500    0.0000 C.ar    1  UNL1       -0.0551
     13 C           4.5981   -0.2500    0.0000 C.ar    1  UNL1       -0.0551
     14 C          12.3923    0.2500    0.0000 C.ar    1  UNL1       -0.0090
     15 C          12.3923   -1.7500    0.0000 C.ar    1  UNL1       -0.0156
     16 C          11.5263   -1.2500    0.0000 C.ar    1  UNL1       -0.0509
     17 C           4.5981    1.7500    0.0000 C.ar    1  UNL1       -0.0197
     18 C           3.7320    0.2500    0.0000 C.ar    1  UNL1       -0.0197
     19 C          14.7882   -0.7500    0.0000 C.3     1  UNL1        0.2332
     20 C           3.7320    1.2500    0.0000 C.ar    1  UNL1        0.1201
     21 C          10.6603    0.2500    0.0000 C.2     1  UNL1       -0.0496
     22 C           8.9282    0.2500    0.0000 C.2     1  UNL1        0.2369
     23 C           9.7942   -0.2500    0.0000 C.2     1  UNL1        0.0007
     24 C           2.0000    1.2500    0.0000 C.3     1  UNL1        0.0788
     25 H           5.9316   -0.7249    0.0000 H       1  UNL1        0.0328
     26 H           6.7287   -0.7249    0.0000 H       1  UNL1        0.0328
     27 H           7.5947    0.7249    0.0000 H       1  UNL1        0.0465
     28 H           6.7976    0.7249    0.0000 H       1  UNL1        0.0465
     29 H           6.0010    1.5600    0.0000 H       1  UNL1        0.0621
     30 H           4.5981   -0.8700    0.0000 H       1  UNL1        0.0621
     31 H           8.0622   -0.8700    0.0000 H       1  UNL1        0.1490
     32 H          12.3923    0.8700    0.0000 H       1  UNL1        0.0661
     33 H          12.3923   -2.3700    0.0000 H       1  UNL1        0.0655
     34 H          10.9893   -1.5600    0.0000 H       1  UNL1        0.0625
     35 H           4.5981    2.3700    0.0000 H       1  UNL1        0.0654
     36 H           3.1951   -0.0600    0.0000 H       1  UNL1        0.0654
     37 H          15.2490   -1.1647    0.0000 H       1  UNL1        0.1166
     38 H          15.2490   -0.3353    0.0000 H       1  UNL1        0.1166
     39 H          10.6603    0.8700    0.0000 H       1  UNL1        0.0625
     40 H           9.7942   -0.8700    0.0000 H       1  UNL1        0.0669
     41 H           1.6900    1.7869    0.0000 H       1  UNL1        0.0660
     42 H           1.4631    0.9400    0.0000 H       1  UNL1        0.0660
     43 H           2.3100    0.7131    0.0000 H       1  UNL1        0.0660
@<TRIPOS>BOND
     1     1     9    1
     2     1    19    1
     3     2    10    1
     4     2    19    1
     5     3    20    1
     6     3    24    1
     7     4    22    2
     8     5     7    1
     9     5    22   am
    10     5    31    1
    11     6     7    1
    12     6     8    1
    13     6    25    1
    14     6    26    1
    15     7    27    1
    16     7    28    1
    17     8    12   ar
    18     8    13   ar
    19     9    10   ar
    20     9    14   ar
    21    10    15   ar
    22    11    14   ar
    23    11    16   ar
    24    11    21    1
    25    12    17   ar
    26    12    29    1
    27    13    18   ar
    28    13    30    1
    29    14    32    1
    30    15    16   ar
    31    15    33    1
    32    16    34    1
    33    17    20   ar
    34    17    35    1
    35    18    20   ar
    36    18    36    1
    37    19    37    1
    38    19    38    1
    39    21    23    2
    40    21    39    1
    41    22    23    1
    42    23    40    1
    43    24    41    1
    44    24    42    1
    45    24    43    1
