@<TRIPOS>MOLECULE
IMPHY001489
 44 47 0 0 0
SMALL
GASTEIGER

@<TRIPOS>ATOM
      1 O           4.3798    1.7569    0.0000 O.2     1  UNL1       -0.4539
      2 O           2.5836   -1.0894    0.0000 O.2     1  UNL1       -0.4591
      3 O           4.3958   -2.2846    0.0000 O.3     1  UNL1       -0.4842
      4 O           7.0321    0.2122    0.0000 O.2     1  UNL1       -0.2870
      5 C           3.5298    0.2154    0.0000 C.ar    1  UNL1        0.0667
      6 C           4.3958    0.7154    0.0000 C.ar    1  UNL1        0.1502
      7 C           5.2619    0.2154    0.0000 C.ar    1  UNL1        0.0683
      8 C           3.5298   -0.7846    0.0000 C.ar    1  UNL1        0.1797
      9 C           4.3958   -1.2846    0.0000 C.ar    1  UNL1        0.1644
     10 C           5.2619   -0.7846    0.0000 C.ar    1  UNL1       -0.0019
     11 C           6.1719    0.7222    0.0000 C.ar    1  UNL1        0.1932
     12 C           5.2778    2.2846    0.0000 C.ar    1  UNL1        0.1392
     13 C           2.5836    0.5201    0.0000 C.ar    1  UNL1       -0.0124
     14 C           6.1799    1.7638    0.0000 C.ar    1  UNL1        0.0287
     15 C           2.0000   -0.2846    0.0000 C.ar    1  UNL1        0.0934
     16 C           5.2740    3.2846    0.0000 C.ar    1  UNL1        0.0174
     17 C           5.2619   -2.7846    0.0000 C.3     1  UNL1        0.1082
     18 C           6.1381    3.7880    0.0000 C.ar    1  UNL1       -0.0511
     19 C           4.4060    3.7813    0.0000 C.ar    1  UNL1       -0.0511
     20 C           5.2619   -3.7846    0.0000 C.2     1  UNL1       -0.0484
     21 C           6.1279   -4.2846    0.0000 C.2     1  UNL1       -0.0765
     22 C           6.1342    4.7880    0.0000 C.ar    1  UNL1       -0.0611
     23 C           4.4022    4.7813    0.0000 C.ar    1  UNL1       -0.0611
     24 C           5.2663    5.2846    0.0000 C.ar    1  UNL1       -0.0617
     25 C           6.1279   -5.2846    0.0000 C.3     1  UNL1       -0.0439
     26 C           6.9939   -3.7846    0.0000 C.3     1  UNL1       -0.0439
     27 H           5.7988   -1.0946    0.0000 H       1  UNL1        0.0663
     28 H           2.3910    1.1094    0.0000 H       1  UNL1        0.0656
     29 H           6.7180    2.0718    0.0000 H       1  UNL1        0.0693
     30 H           1.3800   -0.2846    0.0000 H       1  UNL1        0.1030
     31 H           5.8725   -2.8923    0.0000 H       1  UNL1        0.0742
     32 H           5.4739   -2.2020    0.0000 H       1  UNL1        0.0742
     33 H           6.6762    3.4800    0.0000 H       1  UNL1        0.0625
     34 H           3.8703    3.4692    0.0000 H       1  UNL1        0.0625
     35 H           4.7249   -4.0946    0.0000 H       1  UNL1        0.0605
     36 H           6.6700    5.1000    0.0000 H       1  UNL1        0.0618
     37 H           3.8640    5.0892    0.0000 H       1  UNL1        0.0618
     38 H           5.2639    5.9046    0.0000 H       1  UNL1        0.0618
     39 H           5.5079   -5.2846    0.0000 H       1  UNL1        0.0274
     40 H           6.1279   -5.9046    0.0000 H       1  UNL1        0.0274
     41 H           6.7479   -5.2846    0.0000 H       1  UNL1        0.0274
     42 H           7.3039   -4.3216    0.0000 H       1  UNL1        0.0274
     43 H           7.5309   -3.4746    0.0000 H       1  UNL1        0.0274
     44 H           6.6839   -3.2477    0.0000 H       1  UNL1        0.0274
@<TRIPOS>BOND
     1     1     6   ar
     2     1    12   ar
     3     2     8   ar
     4     2    15   ar
     5     3     9    1
     6     3    17    1
     7     4    11    2
     8     5     6   ar
     9     5     8   ar
    10     5    13   ar
    11     6     7   ar
    12     7    10   ar
    13     7    11   ar
    14     8     9   ar
    15     9    10   ar
    16    10    27    1
    17    11    14   ar
    18    12    14   ar
    19    12    16    1
    20    13    15   ar
    21    13    28    1
    22    14    29    1
    23    15    30    1
    24    16    18   ar
    25    16    19   ar
    26    17    20    1
    27    17    31    1
    28    17    32    1
    29    18    22   ar
    30    18    33    1
    31    19    23   ar
    32    19    34    1
    33    20    21    2
    34    20    35    1
    35    21    25    1
    36    21    26    1
    37    22    24   ar
    38    22    36    1
    39    23    24   ar
    40    23    37    1
    41    24    38    1
    42    25    39    1
    43    25    40    1
    44    25    41    1
    45    26    42    1
    46    26    43    1
    47    26    44    1
