@<TRIPOS>MOLECULE
IMPHY015842
 14 13 0 0 0
SMALL
GASTEIGER

@<TRIPOS>ATOM
      1 O           4.5981    0.7500    0.0000 O.3     1  UNL1       -0.4679
      2 O           3.7320   -0.7500    0.0000 O.2     1  UNL1       -0.2509
      3 C           2.8660    0.7500    0.0000 C.3     1  UNL1        0.0421
      4 C           2.0000    0.2500    0.0000 C.3     1  UNL1       -0.0552
      5 C           3.7320    0.2500    0.0000 C.2     1  UNL1        0.3065
      6 C           5.4641    0.2500    0.0000 C.3     1  UNL1        0.0817
      7 H           3.2646    1.2250    0.0000 H       1  UNL1        0.0375
      8 H           2.4675    1.2250    0.0000 H       1  UNL1        0.0375
      9 H           1.6900    0.7869    0.0000 H       1  UNL1        0.0235
     10 H           1.4631   -0.0600    0.0000 H       1  UNL1        0.0235
     11 H           2.3100   -0.2869    0.0000 H       1  UNL1        0.0235
     12 H           5.1541   -0.2869    0.0000 H       1  UNL1        0.0661
     13 H           6.0010   -0.0600    0.0000 H       1  UNL1        0.0661
     14 H           5.7741    0.7869    0.0000 H       1  UNL1        0.0661
@<TRIPOS>BOND
     1     1     5    1
     2     1     6    1
     3     2     5    2
     4     3     4    1
     5     3     5    1
     6     3     7    1
     7     3     8    1
     8     4     9    1
     9     4    10    1
    10     4    11    1
    11     6    12    1
    12     6    13    1
    13     6    14    1
