@<TRIPOS>MOLECULE
IMPHY002088
 58 63 0 0 0
SMALL
GASTEIGER

@<TRIPOS>ATOM
      1 O           2.6265   -1.3662    0.0000 O.3     1  UNL1       -0.3598
      2 O           6.2076   -0.0949    0.0000 O.3     1  UNL1       -0.3869
      3 N           3.6640    0.0415    0.0000 N.3     1  UNL1       -0.2744
      4 C           5.5387    0.0053    0.0000 C.3     1  UNL1       -0.0095
      5 C           6.4487    0.5122    0.0000 C.3     1  UNL1       -0.0251
      6 C           5.5307   -1.0363    0.0000 C.3     1  UNL1       -0.0249
      7 C           7.3147    0.0122    0.0000 C.3     1  UNL1        0.0040
      8 C           4.5953   -1.5860    0.0000 C.3     1  UNL1        0.0111
      9 C           6.4328   -1.5571    0.0000 C.3     1  UNL1       -0.0484
     10 C           7.3308   -1.0293    0.0000 C.3     1  UNL1       -0.0442
     11 C           4.6119    0.5694    0.0000 C.3     1  UNL1        0.0075
     12 C           6.9882   -0.4647    0.0000 C.3     1  UNL1       -0.0456
     13 C           6.4487    1.5122    0.0000 C.3     1  UNL1       -0.0424
     14 C           8.1808    0.5122    0.0000 C.3     1  UNL1       -0.0439
     15 C           3.6556   -1.0435    0.0000 C.3     1  UNL1        0.1176
     16 C           7.3147    2.0122    0.0000 C.3     1  UNL1       -0.0174
     17 C           6.9147    0.6122    0.0000 C.3     1  UNL1        0.0821
     18 C           5.7032   -2.6322    0.0000 C.3     1  UNL1       -0.0437
     19 C           7.0831   -1.9856    0.0000 C.3     1  UNL1       -0.0519
     20 C           8.1808    1.5122    0.0000 C.3     1  UNL1       -0.0458
     21 C           6.9147    1.4122    0.0000 C.2     1  UNL1       -0.0449
     22 C           3.9979   -2.3880    0.0000 C.3     1  UNL1       -0.0557
     23 C           2.6399    0.3800    0.0000 C.3     1  UNL1        0.0247
     24 C           2.0000   -0.4882    0.0000 C.3     1  UNL1        0.0625
     25 C           6.2076    2.1193    0.0000 C.2     1  UNL1       -0.0967
     26 H           5.7126    0.9372    0.0000 H       1  UNL1        0.0313
     27 H           5.5241   -1.8862    0.0000 H       1  UNL1        0.0313
     28 H           6.0354   -2.0331    0.0000 H       1  UNL1        0.0268
     29 H           6.8337   -2.0300    0.0000 H       1  UNL1        0.0268
     30 H           7.5488   -1.6097    0.0000 H       1  UNL1        0.0272
     31 H           7.9399   -0.9138    0.0000 H       1  UNL1        0.0272
     32 H           5.0201    1.0361    0.0000 H       1  UNL1        0.0433
     33 H           4.2220    1.0514    0.0000 H       1  UNL1        0.0433
     34 H           7.6070   -0.5038    0.0000 H       1  UNL1        0.0271
     35 H           7.1043    0.1443    0.0000 H       1  UNL1        0.0271
     36 H           6.2367    2.0948    0.0000 H       1  UNL1        0.0274
     37 H           5.8381    1.4045    0.0000 H       1  UNL1        0.0274
     38 H           8.3928   -0.0704    0.0000 H       1  UNL1        0.0272
     39 H           8.7913    0.6198    0.0000 H       1  UNL1        0.0272
     40 H           3.5624   -1.8884    0.0000 H       1  UNL1        0.0774
     41 H           7.3147    2.8622    0.0000 H       1  UNL1        0.0346
     42 H           7.5081    0.7918    0.0000 H       1  UNL1        0.0646
     43 H           5.2246   -3.0262    0.0000 H       1  UNL1        0.0272
     44 H           6.0344   -3.1563    0.0000 H       1  UNL1        0.0272
     45 H           7.2739   -2.5755    0.0000 H       1  UNL1        0.0266
     46 H           7.6922   -1.8700    0.0000 H       1  UNL1        0.0266
     47 H           8.7913    1.4045    0.0000 H       1  UNL1        0.0271
     48 H           8.3928    2.0948    0.0000 H       1  UNL1        0.0271
     49 H           3.5007   -2.0176    0.0000 H       1  UNL1        0.0236
     50 H           3.6276   -2.8852    0.0000 H       1  UNL1        0.0236
     51 H           4.4952   -2.7583    0.0000 H       1  UNL1        0.0236
     52 H           2.8953    0.9450    0.0000 H       1  UNL1        0.0450
     53 H           2.1049    0.6934    0.0000 H       1  UNL1        0.0450
     54 H           1.5423   -0.0700    0.0000 H       1  UNL1        0.0573
     55 H           1.5360   -0.8994    0.0000 H       1  UNL1        0.0573
     56 H           6.3681   -0.6938    0.0000 H       1  UNL1        0.2102
     57 H           6.3681    2.7182    0.0000 H       1  UNL1        0.0535
     58 H           5.6088    1.9588    0.0000 H       1  UNL1        0.0535
@<TRIPOS>BOND
     1     1    15    1
     2     1    24    1
     3    17     2    1
     4     2    56    1
     5     3    11    1
     6     3    15    1
     7     3    23    1
     8     4     5    1
     9     4     6    1
    10     4    11    1
    11     4    12    1
    12     5     7    1
    13     5    13    1
    14     5    26    1
    15     6     8    1
    16     6     9    1
    17     6    27    1
    18     7    10    1
    19     7    14    1
    20     7    17    1
    21     8    15    1
    22     8    18    1
    23     8    22    1
    24     9    10    1
    25     9    28    1
    26     9    29    1
    27    10    30    1
    28    10    31    1
    29    11    32    1
    30    11    33    1
    31    12    19    1
    32    12    34    1
    33    12    35    1
    34    13    16    1
    35    13    36    1
    36    13    37    1
    37    14    20    1
    38    14    38    1
    39    14    39    1
    40    15    40    1
    41    16    20    1
    42    16    21    1
    43    16    41    1
    44    17    21    1
    45    17    42    1
    46    18    19    1
    47    18    43    1
    48    18    44    1
    49    19    45    1
    50    19    46    1
    51    20    47    1
    52    20    48    1
    53    21    25    2
    54    22    49    1
    55    22    50    1
    56    22    51    1
    57    23    24    1
    58    23    52    1
    59    23    53    1
    60    24    54    1
    61    24    55    1
    62    25    57    1
    63    25    58    1
