@<TRIPOS>MOLECULE
IMPHY007703
 132 139 0 0 0
SMALL
GASTEIGER

@<TRIPOS>ATOM
      1 O           8.2902    0.9837    0.0000 O.3     1  UNL1       -0.3448
      2 O           6.5177    1.8785    0.0000 O.3     1  UNL1       -0.3479
      3 O           6.8671   -7.2604    0.0000 O.3     1  UNL1       -0.3451
      4 O           7.9172    5.0473    0.0000 O.3     1  UNL1       -0.4642
      5 O           5.1350   -7.2604    0.0000 O.3     1  UNL1       -0.3405
      6 O           6.8671   -9.2604    0.0000 O.3     1  UNL1       -0.3378
      7 O           5.1350  -10.2604    0.0000 O.3     1  UNL1       -0.3864
      8 O           3.4030   -9.2604    0.0000 O.3     1  UNL1       -0.3865
      9 O           6.8950    6.4455    0.0000 O.2     1  UNL1       -0.2507
     10 O           7.7331   -7.7604    0.0000 O.3     1  UNL1       -0.3431
     11 O           2.5369   -7.7604    0.0000 O.3     1  UNL1       -0.3924
     12 O           9.5037    7.7334    0.0000 O.3     1  UNL1       -0.3878
     13 O           8.5991  -10.2604    0.0000 O.3     1  UNL1       -0.3841
     14 O          10.3312   -9.2604    0.0000 O.3     1  UNL1       -0.3864
     15 O          10.3312   -7.2604    0.0000 O.3     1  UNL1       -0.3866
     16 O           9.1017   10.2045    0.0000 O.3     1  UNL1       -0.4805
     17 O          10.1240    8.8063    0.0000 O.2     1  UNL1       -0.2509
     18 C           6.8963   -1.0636    0.0000 C.3     1  UNL1       -0.0233
     19 C           7.7643   -1.5602    0.0000 C.3     1  UNL1       -0.0295
     20 C           7.1018   -0.0909    0.0000 C.3     1  UNL1       -0.0015
     21 C           7.7681   -2.5602    0.0000 C.3     1  UNL1       -0.0306
     22 C           8.0901    0.0159    0.0000 C.3     1  UNL1        0.0660
     23 C           6.9040   -3.0635    0.0000 C.3     1  UNL1       -0.0285
     24 C           8.4987   -0.8903    0.0000 C.3     1  UNL1       -0.0226
     25 C           6.0322   -1.5669    0.0000 C.3     1  UNL1       -0.0467
     26 C           6.6995    0.8117    0.0000 C.3     1  UNL1        0.0160
     27 C           6.0361   -2.5669    0.0000 C.3     1  UNL1       -0.0486
     28 C           6.8920   -4.1051    0.0000 C.3     1  UNL1       -0.0078
     29 C           7.4324    1.4745    0.0000 C.3     1  UNL1        0.1732
     30 C           6.0284   -0.5669    0.0000 C.3     1  UNL1       -0.0590
     31 C           8.6801   -3.0635    0.0000 C.3     1  UNL1       -0.0311
     32 C           7.7920   -4.6294    0.0000 C.2     1  UNL1       -0.0648
     33 C           5.9421   -4.6294    0.0000 C.3     1  UNL1       -0.0413
     34 C           5.7211    1.0184    0.0000 C.3     1  UNL1       -0.0572
     35 C           8.2397    2.0647    0.0000 C.3     1  UNL1        0.0021
     36 C           8.6921   -4.1051    0.0000 C.2     1  UNL1       -0.0839
     37 C           6.0279   -3.6018    0.0000 C.3     1  UNL1       -0.0556
     38 C           7.8046   -5.7143    0.0000 C.3     1  UNL1       -0.0047
     39 C           5.9295   -5.7143    0.0000 C.3     1  UNL1       -0.0254
     40 C           6.8671   -6.2604    0.0000 C.3     1  UNL1        0.0655
     41 C           8.1322    3.0589    0.0000 C.3     1  UNL1       -0.0401
     42 C           7.2174    3.4629    0.0000 C.3     1  UNL1        0.0170
     43 C           6.4102    2.8727    0.0000 C.3     1  UNL1        0.0568
     44 C           7.1100    4.4571    0.0000 C.3     1  UNL1        0.0974
     45 C           6.0010   -7.7604    0.0000 C.3     1  UNL1        0.1886
     46 C           6.0010   -8.7604    0.0000 C.3     1  UNL1        0.1406
     47 C           5.1350   -9.2604    0.0000 C.3     1  UNL1        0.1144
     48 C           4.2690   -7.7604    0.0000 C.3     1  UNL1        0.1130
     49 C           4.2690   -8.7604    0.0000 C.3     1  UNL1        0.1119
     50 C           7.8097    6.0415    0.0000 C.2     1  UNL1        0.3099
     51 C           3.4030   -7.2604    0.0000 C.3     1  UNL1        0.0730
     52 C           8.6170    6.6317    0.0000 C.3     1  UNL1        0.0739
     53 C           7.7331   -8.7604    0.0000 C.3     1  UNL1        0.1884
     54 C           8.5095    7.6259    0.0000 C.3     1  UNL1        0.0834
     55 C           8.5991   -9.2604    0.0000 C.3     1  UNL1        0.1341
     56 C           9.4651   -8.7604    0.0000 C.3     1  UNL1        0.1140
     57 C           8.5991   -7.2604    0.0000 C.3     1  UNL1        0.0873
     58 C           9.4651   -7.7604    0.0000 C.3     1  UNL1        0.1095
     59 C           8.4020    8.6201    0.0000 C.3     1  UNL1        0.0738
     60 C           7.5153    7.5184    0.0000 C.3     1  UNL1       -0.0350
     61 C           8.5991   -6.2604    0.0000 C.3     1  UNL1       -0.0361
     62 C           9.2092    9.2103    0.0000 C.2     1  UNL1        0.3075
     63 H           8.5426   -1.9019    0.0000 H       1  UNL1        0.0310
     64 H           6.2565   -0.1805    0.0000 H       1  UNL1        0.0335
     65 H           8.4993   -2.1267    0.0000 H       1  UNL1        0.0310
     66 H           8.9350    0.1091    0.0000 H       1  UNL1        0.0600
     67 H           7.6385   -3.4914    0.0000 H       1  UNL1        0.0312
     68 H           8.8661   -1.3897    0.0000 H       1  UNL1        0.0293
     69 H           9.0340   -0.5774    0.0000 H       1  UNL1        0.0293
     70 H           5.8179   -0.9851    0.0000 H       1  UNL1        0.0271
     71 H           5.4221   -1.6769    0.0000 H       1  UNL1        0.0271
     72 H           6.3097    0.3295    0.0000 H       1  UNL1        0.0354
     73 H           5.4251   -2.4616    0.0000 H       1  UNL1        0.0268
     74 H           5.8263   -3.1503    0.0000 H       1  UNL1        0.0268
     75 H           6.3363   -0.0288    0.0000 H       1  UNL1        0.0235
     76 H           5.4902   -0.2590    0.0000 H       1  UNL1        0.0235
     77 H           5.7204   -1.1050    0.0000 H       1  UNL1        0.0235
     78 H           9.2921   -3.1626    0.0000 H       1  UNL1        0.0310
     79 H           8.8824   -2.4775    0.0000 H       1  UNL1        0.0310
     80 H           5.7398   -4.0433    0.0000 H       1  UNL1        0.0274
     81 H           5.3300   -4.7284    0.0000 H       1  UNL1        0.0274
     82 H           5.8492    1.6250    0.0000 H       1  UNL1        0.0234
     83 H           5.1145    1.1465    0.0000 H       1  UNL1        0.0234
     84 H           5.5929    0.4117    0.0000 H       1  UNL1        0.0234
     85 H           8.5132    1.5082    0.0000 H       1  UNL1        0.0317
     86 H           8.8352    2.2373    0.0000 H       1  UNL1        0.0317
     87 H           9.2314   -4.4110    0.0000 H       1  UNL1        0.0572
     88 H           6.3400   -3.0660    0.0000 H       1  UNL1        0.0238
     89 H           5.4922   -3.2897    0.0000 H       1  UNL1        0.0238
     90 H           5.7158   -4.1375    0.0000 H       1  UNL1        0.0238
     91 H           8.0204   -6.2955    0.0000 H       1  UNL1        0.0335
     92 H           8.4142   -5.6012    0.0000 H       1  UNL1        0.0335
     93 H           5.3199   -5.6012    0.0000 H       1  UNL1        0.0290
     94 H           5.7137   -6.2955    0.0000 H       1  UNL1        0.0290
     95 H           7.4046   -6.5694    0.0000 H       1  UNL1        0.0600
     96 H           8.7508    3.0175    0.0000 H       1  UNL1        0.0271
     97 H           8.2804    3.6609    0.0000 H       1  UNL1        0.0271
     98 H           7.7180    3.8288    0.0000 H       1  UNL1        0.0356
     99 H           6.1367    3.4291    0.0000 H       1  UNL1        0.0565
    100 H           5.8147    2.7000    0.0000 H       1  UNL1        0.0565
    101 H           6.8365    5.0135    0.0000 H       1  UNL1        0.0701
    102 H           6.5145    4.2844    0.0000 H       1  UNL1        0.0701
    103 H           6.0010   -7.1404    0.0000 H       1  UNL1        0.0938
    104 H           6.0010   -9.3804    0.0000 H       1  UNL1        0.0675
    105 H           4.5981   -9.5704    0.0000 H       1  UNL1        0.0648
    106 H           4.2690   -7.1404    0.0000 H       1  UNL1        0.0647
    107 H           3.7320   -8.4504    0.0000 H       1  UNL1        0.0647
    108 H           3.8015   -6.7855    0.0000 H       1  UNL1        0.0584
    109 H           3.0044   -6.7855    0.0000 H       1  UNL1        0.0584
    110 H           8.8904    6.0752    0.0000 H       1  UNL1        0.0406
    111 H           9.2124    6.8044    0.0000 H       1  UNL1        0.0406
    112 H           7.1962   -8.4504    0.0000 H       1  UNL1        0.0938
    113 H           4.5981  -10.5704    0.0000 H       1  UNL1        0.2100
    114 H           3.4030   -9.8804    0.0000 H       1  UNL1        0.2100
    115 H           8.0622   -9.5704    0.0000 H       1  UNL1        0.0671
    116 H           2.0000   -7.4504    0.0000 H       1  UNL1        0.2095
    117 H          10.0021   -8.4504    0.0000 H       1  UNL1        0.0648
    118 H           8.0622   -6.9504    0.0000 H       1  UNL1        0.0621
    119 H           9.4651   -7.1404    0.0000 H       1  UNL1        0.0646
    120 H           8.1285    9.1765    0.0000 H       1  UNL1        0.0406
    121 H           7.8065    8.4474    0.0000 H       1  UNL1        0.0406
    122 H           7.4486    8.1348    0.0000 H       1  UNL1        0.0257
    123 H           6.8988    7.4517    0.0000 H       1  UNL1        0.0257
    124 H           7.5819    6.9020    0.0000 H       1  UNL1        0.0257
    125 H           9.8696    7.2329    0.0000 H       1  UNL1        0.2102
    126 H           9.1360  -10.5704    0.0000 H       1  UNL1        0.2101
    127 H           9.2191   -6.2604    0.0000 H       1  UNL1        0.0255
    128 H           8.5991   -5.6404    0.0000 H       1  UNL1        0.0255
    129 H           7.9791   -6.2604    0.0000 H       1  UNL1        0.0255
    130 H          10.8681   -8.9504    0.0000 H       1  UNL1        0.2100
    131 H          10.3312   -6.6404    0.0000 H       1  UNL1        0.2100
    132 H           9.6022   10.5704    0.0000 H       1  UNL1        0.2951
@<TRIPOS>BOND
     1     1    22    1
     2    29     1    1
     3     2    29    1
     4     2    43    1
     5    40     3    1
     6    45     3    1
     7     4    44    1
     8     4    50    1
     9     5    45    1
    10     5    48    1
    11    46     6    1
    12    53     6    1
    13    47     7    1
    14     7   113    1
    15    49     8    1
    16     8   114    1
    17     9    50    2
    18    10    53    1
    19    10    57    1
    20    11    51    1
    21    11   116    1
    22    12    54    1
    23    12   125    1
    24    55    13    1
    25    13   126    1
    26    56    14    1
    27    14   130    1
    28    58    15    1
    29    15   131    1
    30    16    62    1
    31    16   132    1
    32    17    62    2
    33    18    19    1
    34    18    20    1
    35    18    25    1
    36    18    30    1
    37    19    21    1
    38    19    24    1
    39    19    63    1
    40    20    22    1
    41    20    26    1
    42    20    64    1
    43    21    23    1
    44    21    31    1
    45    21    65    1
    46    22    24    1
    47    22    66    1
    48    23    27    1
    49    23    28    1
    50    23    67    1
    51    24    68    1
    52    24    69    1
    53    25    27    1
    54    25    70    1
    55    25    71    1
    56    26    29    1
    57    26    34    1
    58    26    72    1
    59    27    73    1
    60    27    74    1
    61    28    32    1
    62    28    33    1
    63    28    37    1
    64    29    35    1
    65    30    75    1
    66    30    76    1
    67    30    77    1
    68    31    36    1
    69    31    78    1
    70    31    79    1
    71    32    36    2
    72    32    38    1
    73    33    39    1
    74    33    80    1
    75    33    81    1
    76    34    82    1
    77    34    83    1
    78    34    84    1
    79    35    41    1
    80    35    85    1
    81    35    86    1
    82    36    87    1
    83    37    88    1
    84    37    89    1
    85    37    90    1
    86    38    40    1
    87    38    91    1
    88    38    92    1
    89    39    40    1
    90    39    93    1
    91    39    94    1
    92    40    95    1
    93    41    42    1
    94    41    96    1
    95    41    97    1
    96    42    43    1
    97    42    44    1
    98    42    98    1
    99    43    99    1
   100    43   100    1
   101    44   101    1
   102    44   102    1
   103    45    46    1
   104    45   103    1
   105    46    47    1
   106    46   104    1
   107    47    49    1
   108    47   105    1
   109    48    49    1
   110    48    51    1
   111    48   106    1
   112    49   107    1
   113    50    52    1
   114    51   108    1
   115    51   109    1
   116    52    54    1
   117    52   110    1
   118    52   111    1
   119    53    55    1
   120    53   112    1
   121    54    59    1
   122    54    60    1
   123    55    56    1
   124    55   115    1
   125    56    58    1
   126    56   117    1
   127    57    58    1
   128    57    61    1
   129    57   118    1
   130    58   119    1
   131    59    62    1
   132    59   120    1
   133    59   121    1
   134    60   122    1
   135    60   123    1
   136    60   124    1
   137    61   127    1
   138    61   128    1
   139    61   129    1
