@<TRIPOS>MOLECULE
IMPHY008973
 71 77 0 0 0
SMALL
GASTEIGER

@<TRIPOS>ATOM
      1 O           8.7129    0.3422    0.0000 O.3     1  UNL1       -0.3483
      2 O           5.9670   -0.1945    0.0000 O.2     1  UNL1       -0.4701
      3 O           6.8671   -1.7188    0.0000 O.3     1  UNL1       -0.3095
      4 O           5.1350   -1.7188    0.0000 O.3     1  UNL1       -0.3404
      5 O           6.0599    2.8700    0.0000 O.3     1  UNL1       -0.4646
      6 O           7.7915    2.8300    0.0000 O.2     1  UNL1       -0.2452
      7 O           6.8671   -3.7188    0.0000 O.3     1  UNL1       -0.3841
      8 O           5.1350   -4.7188    0.0000 O.3     1  UNL1       -0.3864
      9 O           3.4030   -3.7188    0.0000 O.3     1  UNL1       -0.3865
     10 O           2.5369   -2.2188    0.0000 O.3     1  UNL1       -0.3924
     11 N           9.9634    0.2801    0.0000 N.3     1  UNL1       -0.2672
     12 N           9.8844    3.0565    0.0000 N.ar    1  UNL1       -0.3544
     13 C           9.5400    1.1861    0.0000 C.3     1  UNL1        0.1651
     14 C           7.7671   -0.1945    0.0000 C.3     1  UNL1        0.0563
     15 C           8.5417   -0.8270    0.0000 C.3     1  UNL1        0.0832
     16 C           7.7787    0.8054    0.0000 C.3     1  UNL1        0.0090
     17 C           8.5677    1.4198    0.0000 C.3     1  UNL1        0.0037
     18 C           9.5191   -0.6158    0.0000 C.3     1  UNL1        0.0287
     19 C          10.1234    2.0490    0.0000 C.ar    1  UNL1        0.0677
     20 C           6.8671   -0.7188    0.0000 C.3     1  UNL1        0.2092
     21 C          10.9996    0.1743    0.0000 C.3     1  UNL1        0.0059
     22 C          11.1618    1.9671    0.0000 C.ar    1  UNL1       -0.0137
     23 C           6.8910    1.3504    0.0000 C.2     1  UNL1        0.0745
     24 C          11.6029    1.0235    0.0000 C.3     1  UNL1       -0.0124
     25 C          11.5557    2.9247    0.0000 C.ar    1  UNL1        0.0033
     26 C           5.9790    0.8471    0.0000 C.2     1  UNL1        0.0981
     27 C          10.7678    3.5966    0.0000 C.ar    1  UNL1        0.0470
     28 C           6.9141    2.3501    0.0000 C.2     1  UNL1        0.3381
     29 C           6.0010   -2.2188    0.0000 C.3     1  UNL1        0.1918
     30 C          12.5776    3.2698    0.0000 C.ar    1  UNL1       -0.0523
     31 C           6.0010   -3.2188    0.0000 C.3     1  UNL1        0.1342
     32 C          10.9472    4.6602    0.0000 C.ar    1  UNL1       -0.0378
     33 C           5.1350   -3.7188    0.0000 C.3     1  UNL1        0.1141
     34 C           4.2690   -2.2188    0.0000 C.3     1  UNL1        0.1130
     35 C           4.2690   -3.2188    0.0000 C.3     1  UNL1        0.1119
     36 C          12.7815    4.3289    0.0000 C.ar    1  UNL1       -0.0611
     37 C          11.9608    5.0288    0.0000 C.ar    1  UNL1       -0.0598
     38 C           3.4030   -1.7188    0.0000 C.3     1  UNL1        0.0730
     39 C           6.0830    3.8698    0.0000 C.3     1  UNL1        0.0820
     40 H           7.7573   -1.0445    0.0000 H       1  UNL1        0.0393
     41 H           8.1641   -1.5885    0.0000 H       1  UNL1        0.0615
     42 H           7.7885    1.6554    0.0000 H       1  UNL1        0.0359
     43 H           8.8431    1.9753    0.0000 H       1  UNL1        0.0316
     44 H           8.0874    1.8120    0.0000 H       1  UNL1        0.0316
     45 H           9.5120   -1.2357    0.0000 H       1  UNL1        0.0453
     46 H          10.1220   -0.7607    0.0000 H       1  UNL1        0.0453
     47 H           7.4046   -1.0278    0.0000 H       1  UNL1        0.1060
     48 H          10.8320   -0.4226    0.0000 H       1  UNL1        0.0431
     49 H          11.5591   -0.0930    0.0000 H       1  UNL1        0.0431
     50 H          12.0394    0.5832    0.0000 H       1  UNL1        0.0326
     51 H          12.1114    1.3782    0.0000 H       1  UNL1        0.0326
     52 H           9.3121    3.2948    0.0000 H       1  UNL1        0.1657
     53 H           5.4470    1.1653    0.0000 H       1  UNL1        0.1029
     54 H           6.0010   -1.5988    0.0000 H       1  UNL1        0.0939
     55 H          13.0447    2.8621    0.0000 H       1  UNL1        0.0624
     56 H           6.0010   -3.8388    0.0000 H       1  UNL1        0.0671
     57 H          10.4708    5.0570    0.0000 H       1  UNL1        0.0638
     58 H           4.5981   -4.0288    0.0000 H       1  UNL1        0.0648
     59 H           4.2690   -1.5988    0.0000 H       1  UNL1        0.0647
     60 H           3.7320   -2.9088    0.0000 H       1  UNL1        0.0647
     61 H          13.3666    4.5341    0.0000 H       1  UNL1        0.0618
     62 H          12.0710    5.6389    0.0000 H       1  UNL1        0.0618
     63 H           3.8015   -1.2438    0.0000 H       1  UNL1        0.0584
     64 H           3.0044   -1.2438    0.0000 H       1  UNL1        0.0584
     65 H           6.8671   -4.3388    0.0000 H       1  UNL1        0.2101
     66 H           4.5981   -5.0288    0.0000 H       1  UNL1        0.2100
     67 H           6.7028    3.8554    0.0000 H       1  UNL1        0.0661
     68 H           6.0973    4.4896    0.0000 H       1  UNL1        0.0661
     69 H           5.4632    3.8841    0.0000 H       1  UNL1        0.0661
     70 H           3.4030   -4.3388    0.0000 H       1  UNL1        0.2100
     71 H           2.0000   -1.9088    0.0000 H       1  UNL1        0.2095
@<TRIPOS>BOND
     1     1    13    1
     2     1    15    1
     3     2    20    1
     4     2    26    1
     5    20     3    1
     6    29     3    1
     7     4    29    1
     8     4    34    1
     9     5    28    1
    10     5    39    1
    11     6    28    2
    12    31     7    1
    13     7    65    1
    14    33     8    1
    15     8    66    1
    16    35     9    1
    17     9    70    1
    18    10    38    1
    19    10    71    1
    20    11    13    1
    21    11    18    1
    22    11    21    1
    23    12    19   ar
    24    12    27   ar
    25    12    52    1
    26    13    17    1
    27    13    19    1
    28    14    15    1
    29    14    16    1
    30    14    20    1
    31    14    40    1
    32    15    18    1
    33    15    41    1
    34    16    17    1
    35    16    23    1
    36    16    42    1
    37    17    43    1
    38    17    44    1
    39    18    45    1
    40    18    46    1
    41    19    22   ar
    42    20    47    1
    43    21    24    1
    44    21    48    1
    45    21    49    1
    46    22    24    1
    47    22    25   ar
    48    23    26    2
    49    23    28    1
    50    24    50    1
    51    24    51    1
    52    25    27   ar
    53    25    30   ar
    54    26    53    1
    55    27    32   ar
    56    29    31    1
    57    29    54    1
    58    30    36   ar
    59    30    55    1
    60    31    33    1
    61    31    56    1
    62    32    37   ar
    63    32    57    1
    64    33    35    1
    65    33    58    1
    66    34    35    1
    67    34    38    1
    68    34    59    1
    69    35    60    1
    70    36    37   ar
    71    36    61    1
    72    37    62    1
    73    38    63    1
    74    38    64    1
    75    39    67    1
    76    39    68    1
    77    39    69    1
