@<TRIPOS>MOLECULE
IMPHY016576
 28 28 0 0 0
SMALL
GASTEIGER

@<TRIPOS>ATOM
      1 C           2.8660    0.7500    0.0000 C.3     1  UNL1       -0.0204
      2 C           2.8660   -1.2500    0.0000 C.3     1  UNL1       -0.0438
      3 C           3.7320    0.2500    0.0000 C.3     1  UNL1       -0.0463
      4 C           2.0000    0.2500    0.0000 C.3     1  UNL1       -0.0463
      5 C           3.7320   -0.7500    0.0000 C.3     1  UNL1       -0.0499
      6 C           2.0000   -0.7500    0.0000 C.3     1  UNL1       -0.0499
      7 C           2.8660   -2.2500    0.0000 C.3     1  UNL1       -0.0624
      8 C           2.8660    1.7500    0.0000 C.2     1  UNL1       -0.0766
      9 C           3.7320    2.2500    0.0000 C.3     1  UNL1       -0.0438
     10 C           2.0000    2.2500    0.0000 C.2     1  UNL1       -0.0994
     11 H           3.4030    1.0600    0.0000 H       1  UNL1        0.0345
     12 H           3.4030   -1.5600    0.0000 H       1  UNL1        0.0298
     13 H           4.3426    0.1423    0.0000 H       1  UNL1        0.0271
     14 H           3.9441    0.8326    0.0000 H       1  UNL1        0.0271
     15 H           1.7880    0.8326    0.0000 H       1  UNL1        0.0271
     16 H           1.3894    0.1423    0.0000 H       1  UNL1        0.0271
     17 H           3.9441   -1.3326    0.0000 H       1  UNL1        0.0268
     18 H           4.3426   -0.6423    0.0000 H       1  UNL1        0.0268
     19 H           1.3894   -0.6423    0.0000 H       1  UNL1        0.0268
     20 H           1.7880   -1.3326    0.0000 H       1  UNL1        0.0268
     21 H           2.2460   -2.2500    0.0000 H       1  UNL1        0.0232
     22 H           2.8660   -2.8700    0.0000 H       1  UNL1        0.0232
     23 H           3.4860   -2.2500    0.0000 H       1  UNL1        0.0232
     24 H           4.0420    1.7131    0.0000 H       1  UNL1        0.0274
     25 H           4.2690    2.5600    0.0000 H       1  UNL1        0.0274
     26 H           3.4220    2.7869    0.0000 H       1  UNL1        0.0274
     27 H           2.0000    2.8700    0.0000 H       1  UNL1        0.0534
     28 H           1.4631    1.9400    0.0000 H       1  UNL1        0.0534
@<TRIPOS>BOND
     1     1     3    1
     2     1     4    1
     3     1     8    1
     4     1    11    1
     5     2     5    1
     6     2     6    1
     7     2     7    1
     8     2    12    1
     9     3     5    1
    10     3    13    1
    11     3    14    1
    12     4     6    1
    13     4    15    1
    14     4    16    1
    15     5    17    1
    16     5    18    1
    17     6    19    1
    18     6    20    1
    19     7    21    1
    20     7    22    1
    21     7    23    1
    22     8     9    1
    23     8    10    2
    24     9    24    1
    25     9    25    1
    26     9    26    1
    27    10    27    1
    28    10    28    1
