@<TRIPOS>MOLECULE
IMPHY006813
 61 64 0 0 0
SMALL
GASTEIGER

@<TRIPOS>ATOM
      1 O           2.8641   -0.9810    0.0000 O.3     1  UNL1       -0.3827
      2 O           3.7359   -3.5326    0.0000 O.3     1  UNL1       -0.3827
      3 O           7.2622    0.4916    0.0000 O.3     1  UNL1       -0.4910
      4 O           9.0744   -0.7037    0.0000 O.3     1  UNL1       -0.4489
      5 O           9.0744   -2.3132    0.0000 O.3     1  UNL1       -0.4525
      6 O           7.2688    2.5060    0.0000 O.3     1  UNL1       -0.4914
      7 O           5.5484    3.5259    0.0000 O.3     1  UNL1       -0.4915
      8 C           4.5961   -0.9876    0.0000 C.3     1  UNL1       -0.0014
      9 C           4.5961   -2.0293    0.0000 C.3     1  UNL1       -0.0078
     10 C           5.5022   -0.4738    0.0000 C.3     1  UNL1        0.0184
     11 C           5.5022   -2.5431    0.0000 C.3     1  UNL1       -0.0219
     12 C           6.3961   -1.0084    0.0000 C.ar    1  UNL1        0.0091
     13 C           6.3961   -2.0084    0.0000 C.ar    1  UNL1       -0.0361
     14 C           3.7320   -0.4843    0.0000 C.3     1  UNL1        0.0513
     15 C           3.7320   -2.5326    0.0000 C.3     1  UNL1        0.0508
     16 C           5.5138    0.5261    0.0000 C.ar    1  UNL1       -0.0358
     17 C           7.2622   -0.5084    0.0000 C.ar    1  UNL1        0.1693
     18 C           7.2622   -2.5084    0.0000 C.ar    1  UNL1       -0.0124
     19 C           8.1282   -1.0084    0.0000 C.ar    1  UNL1        0.2078
     20 C           8.1282   -2.0084    0.0000 C.ar    1  UNL1        0.1702
     21 C           6.3855    1.0161    0.0000 C.ar    1  UNL1       -0.0125
     22 C           4.6536    1.0361    0.0000 C.ar    1  UNL1       -0.0543
     23 C           6.3971    2.0160    0.0000 C.ar    1  UNL1        0.1618
     24 C           4.6651    2.0361    0.0000 C.ar    1  UNL1       -0.0160
     25 C           9.6580   -1.5084    0.0000 C.3     1  UNL1        0.2334
     26 C           5.5369    2.5260    0.0000 C.ar    1  UNL1        0.1615
     27 C           2.0000   -0.4776    0.0000 C.3     1  UNL1        0.0365
     28 C           2.8718   -4.0359    0.0000 C.3     1  UNL1        0.0365
     29 C           8.1282    0.9916    0.0000 C.3     1  UNL1        0.0790
     30 C           7.2804    3.5059    0.0000 C.3     1  UNL1        0.0790
     31 C           4.6883    4.0359    0.0000 C.3     1  UNL1        0.0790
     32 H           4.5997   -0.3676    0.0000 H       1  UNL1        0.0335
     33 H           4.0586   -1.7203    0.0000 H       1  UNL1        0.0330
     34 H           4.9683   -0.1586    0.0000 H       1  UNL1        0.0402
     35 H           5.1086   -3.0221    0.0000 H       1  UNL1        0.0317
     36 H           5.9068   -3.0129    0.0000 H       1  UNL1        0.0317
     37 H           4.1324   -0.0109    0.0000 H       1  UNL1        0.0563
     38 H           3.3353   -0.0078    0.0000 H       1  UNL1        0.0563
     39 H           3.5177   -1.9508    0.0000 H       1  UNL1        0.0562
     40 H           3.1219   -2.6426    0.0000 H       1  UNL1        0.0562
     41 H           7.2622   -3.1284    0.0000 H       1  UNL1        0.0658
     42 H           6.9188    0.6999    0.0000 H       1  UNL1        0.0658
     43 H           4.1131    0.7324    0.0000 H       1  UNL1        0.0622
     44 H           4.1318    2.3522    0.0000 H       1  UNL1        0.0655
     45 H          10.1189   -1.9232    0.0000 H       1  UNL1        0.1166
     46 H          10.1189   -1.0937    0.0000 H       1  UNL1        0.1166
     47 H           2.3121    0.0581    0.0000 H       1  UNL1        0.0523
     48 H           1.4643   -0.1656    0.0000 H       1  UNL1        0.0523
     49 H           1.6879   -1.0134    0.0000 H       1  UNL1        0.0523
     50 H           2.5597   -3.5002    0.0000 H       1  UNL1        0.0523
     51 H           2.3361   -4.3480    0.0000 H       1  UNL1        0.0523
     52 H           3.1839   -4.5717    0.0000 H       1  UNL1        0.0523
     53 H           8.4382    0.4546    0.0000 H       1  UNL1        0.0660
     54 H           8.6651    1.3016    0.0000 H       1  UNL1        0.0660
     55 H           7.8182    1.5285    0.0000 H       1  UNL1        0.0660
     56 H           7.9003    3.4988    0.0000 H       1  UNL1        0.0660
     57 H           7.2876    4.1259    0.0000 H       1  UNL1        0.0660
     58 H           6.6604    3.5131    0.0000 H       1  UNL1        0.0660
     59 H           5.0044    4.5692    0.0000 H       1  UNL1        0.0660
     60 H           4.1550    4.3521    0.0000 H       1  UNL1        0.0660
     61 H           4.3721    3.5026    0.0000 H       1  UNL1        0.0660
@<TRIPOS>BOND
     1     1    14    1
     2     1    27    1
     3     2    15    1
     4     2    28    1
     5     3    17    1
     6     3    29    1
     7     4    19    1
     8     4    25    1
     9     5    20    1
    10     5    25    1
    11     6    23    1
    12     6    30    1
    13     7    26    1
    14     7    31    1
    15     8     9    1
    16     8    10    1
    17     8    14    1
    18     8    32    1
    19     9    11    1
    20     9    15    1
    21     9    33    1
    22    10    12    1
    23    10    16    1
    24    10    34    1
    25    11    13    1
    26    11    35    1
    27    11    36    1
    28    12    13   ar
    29    12    17   ar
    30    13    18   ar
    31    14    37    1
    32    14    38    1
    33    15    39    1
    34    15    40    1
    35    16    21   ar
    36    16    22   ar
    37    17    19   ar
    38    18    20   ar
    39    18    41    1
    40    19    20   ar
    41    21    23   ar
    42    21    42    1
    43    22    24   ar
    44    22    43    1
    45    23    26   ar
    46    24    26   ar
    47    24    44    1
    48    25    45    1
    49    25    46    1
    50    27    47    1
    51    27    48    1
    52    27    49    1
    53    28    50    1
    54    28    51    1
    55    28    52    1
    56    29    53    1
    57    29    54    1
    58    29    55    1
    59    30    56    1
    60    30    57    1
    61    30    58    1
    62    31    59    1
    63    31    60    1
    64    31    61    1
