@<TRIPOS>MOLECULE
IMPHY002067
 28 30 0 0 0
SMALL
GASTEIGER

@<TRIPOS>ATOM
      1 O           6.3981   -1.6581    0.0000 O.2     1  UNL1       -0.4545
      2 O           2.8680    0.3661    0.0000 O.3     1  UNL1       -0.4951
      3 O           6.3981    1.3419    0.0000 O.2     1  UNL1       -0.2863
      4 O           8.1465    1.3765    0.0000 O.3     1  UNL1       -0.5059
      5 C           5.5320   -0.1581    0.0000 C.ar    1  UNL1        0.0681
      6 C           7.2641   -0.1581    0.0000 C.ar    1  UNL1        0.1058
      7 C           5.5320   -1.1581    0.0000 C.ar    1  UNL1        0.1395
      8 C           7.2641   -1.1581    0.0000 C.ar    1  UNL1        0.1428
      9 C           6.3981    0.3419    0.0000 C.ar    1  UNL1        0.2038
     10 C           4.6381    0.3766    0.0000 C.ar    1  UNL1       -0.0056
     11 C           8.1580    0.3766    0.0000 C.ar    1  UNL1        0.1312
     12 C           4.6381   -1.6927    0.0000 C.ar    1  UNL1       -0.0152
     13 C           3.7320   -0.1372    0.0000 C.ar    1  UNL1        0.1210
     14 C           8.1580   -1.6927    0.0000 C.ar    1  UNL1       -0.0184
     15 C           3.7320   -1.1789    0.0000 C.ar    1  UNL1       -0.0164
     16 C           9.0641   -0.1372    0.0000 C.ar    1  UNL1       -0.0192
     17 C           9.0641   -1.1789    0.0000 C.ar    1  UNL1       -0.0548
     18 C           2.0000   -0.1306    0.0000 C.3     1  UNL1        0.0788
     19 H           4.6453    0.9966    0.0000 H       1  UNL1        0.0662
     20 H           4.6453   -2.3127    0.0000 H       1  UNL1        0.0656
     21 H           8.1509   -2.3127    0.0000 H       1  UNL1        0.0654
     22 H           3.1963   -1.4909    0.0000 H       1  UNL1        0.0655
     23 H           9.5998    0.1748    0.0000 H       1  UNL1        0.0654
     24 H           9.5998   -1.4909    0.0000 H       1  UNL1        0.0620
     25 H           8.6798    1.6927    0.0000 H       1  UNL1        0.2922
     26 H           1.6921    0.4076    0.0000 H       1  UNL1        0.0660
     27 H           1.4619   -0.4385    0.0000 H       1  UNL1        0.0660
     28 H           2.3079   -0.6687    0.0000 H       1  UNL1        0.0660
@<TRIPOS>BOND
     1     1     7   ar
     2     1     8   ar
     3     2    13    1
     4     2    18    1
     5     3     9    2
     6     4    11    1
     7     4    25    1
     8     5     7   ar
     9     5     9   ar
    10     5    10   ar
    11     6     8   ar
    12     6     9   ar
    13     6    11   ar
    14     7    12   ar
    15     8    14   ar
    16    10    13   ar
    17    10    19    1
    18    11    16   ar
    19    12    15   ar
    20    12    20    1
    21    13    15   ar
    22    14    17   ar
    23    14    21    1
    24    15    22    1
    25    16    17   ar
    26    16    23    1
    27    17    24    1
    28    18    26    1
    29    18    27    1
    30    18    28    1
