@<TRIPOS>MOLECULE
IMPHY011388
 74 80 0 0 0
SMALL
GASTEIGER

@<TRIPOS>ATOM
      1 O           5.7925   -0.1999    0.0000 O.3     1  UNL1       -0.4566
      2 O           9.6662   -1.7877    0.0000 O.3     1  UNL1       -0.3769
      3 O           7.0181    1.0239    0.0000 O.2     1  UNL1       -0.2449
      4 O           5.1578    4.1125    0.0000 O.3     1  UNL1       -0.4913
      5 O           2.7066    1.6648    0.0000 O.3     1  UNL1       -0.4913
      6 O           3.2256    3.5963    0.0000 O.3     1  UNL1       -0.4885
      7 N           8.1648   -2.3540    0.0000 N.3     1  UNL1       -0.2693
      8 N           6.0749   -3.3095    0.0000 N.pl3   1  UNL1       -0.3272
      9 C           6.5003   -2.0002    0.0000 C.3     1  UNL1        0.0560
     10 C           8.4712   -0.9125    0.0000 C.3     1  UNL1        0.0160
     11 C           7.9019   -1.5448    0.0000 C.3     1  UNL1        0.0205
     12 C           7.5955   -2.9862    0.0000 C.3     1  UNL1        0.0327
     13 C           8.6906   -3.9724    0.0000 C.3     1  UNL1       -0.0255
     14 C           6.7632   -2.8094    0.0000 C.3     1  UNL1        0.0519
     15 C           6.4991   -0.9075    0.0000 C.3     1  UNL1        0.1193
     16 C           7.0696   -1.3679    0.0000 C.3     1  UNL1       -0.0219
     17 C           7.8584   -3.7954    0.0000 C.3     1  UNL1       -0.0319
     18 C           9.2600   -3.3401    0.0000 C.3     1  UNL1        0.0018
     19 C           8.9970   -2.5309    0.0000 C.3     1  UNL1        0.1123
     20 C           5.6495   -2.0002    0.0000 C.ar    1  UNL1       -0.0148
     21 C           5.3865   -2.8094    0.0000 C.ar    1  UNL1        0.0337
     22 C          10.2381   -3.5480    0.0000 C.3     1  UNL1       -0.0492
     23 C           5.0801   -1.3679    0.0000 C.ar    1  UNL1       -0.0561
     24 C           6.0833   -4.3094    0.0000 C.3     1  UNL1        0.0011
     25 C           4.5543   -2.9863    0.0000 C.ar    1  UNL1       -0.0404
     26 C          10.5471   -4.4990    0.0000 C.3     1  UNL1       -0.0649
     27 C           6.0520    0.7658    0.0000 C.2     1  UNL1        0.3397
     28 C           4.2479   -1.5448    0.0000 C.ar    1  UNL1       -0.0614
     29 C           3.9850   -2.3540    0.0000 C.ar    1  UNL1       -0.0600
     30 C           5.3454    1.4734    0.0000 C.ar    1  UNL1        0.0661
     31 C           4.3793    1.2153    0.0000 C.ar    1  UNL1       -0.0021
     32 C           5.6049    2.4392    0.0000 C.ar    1  UNL1       -0.0021
     33 C           4.8983    3.1468    0.0000 C.ar    1  UNL1        0.1660
     34 C           3.6727    1.9229    0.0000 C.ar    1  UNL1        0.1660
     35 C           3.9322    2.8886    0.0000 C.ar    1  UNL1        0.2035
     36 C           6.1240    4.3707    0.0000 C.3     1  UNL1        0.0790
     37 C           2.0000    2.3724    0.0000 C.3     1  UNL1        0.0790
     38 C           3.4851    4.5620    0.0000 C.3     1  UNL1        0.0791
     39 H           9.0511   -0.2910    0.0000 H       1  UNL1        0.0355
     40 H           7.7196   -0.7145    0.0000 H       1  UNL1        0.0468
     41 H           7.1450   -3.7071    0.0000 H       1  UNL1        0.0482
     42 H           8.9533   -4.7808    0.0000 H       1  UNL1        0.0309
     43 H           6.6162   -3.6465    0.0000 H       1  UNL1        0.0525
     44 H           5.9264   -1.1449    0.0000 H       1  UNL1        0.0747
     45 H           7.3019   -0.7930    0.0000 H       1  UNL1        0.0291
     46 H           6.5438   -1.0393    0.0000 H       1  UNL1        0.0291
     47 H           7.2444   -3.8817    0.0000 H       1  UNL1        0.0284
     48 H           7.8367   -4.4151    0.0000 H       1  UNL1        0.0284
     49 H           9.4515   -3.9297    0.0000 H       1  UNL1        0.0342
     50 H           9.6035   -2.6598    0.0000 H       1  UNL1        0.0770
     51 H          10.8521   -3.4617    0.0000 H       1  UNL1        0.0267
     52 H          10.2597   -2.9284    0.0000 H       1  UNL1        0.0267
     53 H           5.2717   -0.7782    0.0000 H       1  UNL1        0.0621
     54 H           5.4633   -4.3147    0.0000 H       1  UNL1        0.0428
     55 H           6.0885   -4.9294    0.0000 H       1  UNL1        0.0428
     56 H           6.7033   -4.3042    0.0000 H       1  UNL1        0.0428
     57 H          10.2726   -1.9166    0.0000 H       1  UNL1        0.2115
     58 H           4.3627   -3.5759    0.0000 H       1  UNL1        0.0636
     59 H           9.9574   -4.6906    0.0000 H       1  UNL1        0.0230
     60 H          10.7387   -5.0887    0.0000 H       1  UNL1        0.0230
     61 H          11.1368   -4.3074    0.0000 H       1  UNL1        0.0230
     62 H           3.8330   -1.0840    0.0000 H       1  UNL1        0.0618
     63 H           3.3785   -2.4829    0.0000 H       1  UNL1        0.0618
     64 H           4.2184    0.6165    0.0000 H       1  UNL1        0.0663
     65 H           6.2039    2.5992    0.0000 H       1  UNL1        0.0663
     66 H           6.2840    3.7717    0.0000 H       1  UNL1        0.0660
     67 H           6.7229    4.5307    0.0000 H       1  UNL1        0.0660
     68 H           5.9639    4.9696    0.0000 H       1  UNL1        0.0660
     69 H           2.4387    2.8105    0.0000 H       1  UNL1        0.0660
     70 H           1.5619    2.8111    0.0000 H       1  UNL1        0.0660
     71 H           1.5613    1.9343    0.0000 H       1  UNL1        0.0660
     72 H           4.0839    4.4011    0.0000 H       1  UNL1        0.0660
     73 H           3.6460    5.1608    0.0000 H       1  UNL1        0.0660
     74 H           2.8864    4.7229    0.0000 H       1  UNL1        0.0660
@<TRIPOS>BOND
     1    15     1    1
     2     1    27    1
     3    19     2    1
     4     2    57    1
     5     3    27    2
     6     4    33    1
     7     4    36    1
     8     5    34    1
     9     5    37    1
    10     6    35    1
    11     6    38    1
    12     7    11    1
    13     7    12    1
    14     7    19    1
    15     8    14    1
    16     8    21    1
    17     8    24    1
    18     9    14    1
    19     9    15    1
    20     9    16    1
    21     9    20    1
    22    10    11    1
    23    10    13    1
    24    10    15    1
    25    10    39    1
    26    11    16    1
    27    11    40    1
    28    12    14    1
    29    12    17    1
    30    12    41    1
    31    13    17    1
    32    13    18    1
    33    13    42    1
    34    14    43    1
    35    15    44    1
    36    16    45    1
    37    16    46    1
    38    17    47    1
    39    17    48    1
    40    18    19    1
    41    18    22    1
    42    18    49    1
    43    19    50    1
    44    20    21   ar
    45    20    23   ar
    46    21    25   ar
    47    22    26    1
    48    22    51    1
    49    22    52    1
    50    23    28   ar
    51    23    53    1
    52    24    54    1
    53    24    55    1
    54    24    56    1
    55    25    29   ar
    56    25    58    1
    57    26    59    1
    58    26    60    1
    59    26    61    1
    60    27    30    1
    61    28    29   ar
    62    28    62    1
    63    29    63    1
    64    30    31   ar
    65    30    32   ar
    66    31    34   ar
    67    31    64    1
    68    32    33   ar
    69    32    65    1
    70    33    35   ar
    71    34    35   ar
    72    36    66    1
    73    36    67    1
    74    36    68    1
    75    37    69    1
    76    37    70    1
    77    37    71    1
    78    38    72    1
    79    38    73    1
    80    38    74    1
