@<TRIPOS>MOLECULE
IMPHY014454
 34 35 0 0 0
SMALL
GASTEIGER

@<TRIPOS>ATOM
      1 O           6.2619    0.0554    0.0000 O.3     1  UNL1       -0.3875
      2 C           3.7320    0.5554    0.0000 C.3     1  UNL1        0.0127
      3 C           4.6783    0.8601    0.0000 C.3     1  UNL1       -0.0017
      4 C           3.7320   -0.4446    0.0000 C.2     1  UNL1       -0.0551
      5 C           2.8660   -0.9446    0.0000 C.3     1  UNL1       -0.0096
      6 C           5.2619    0.0554    0.0000 C.3     1  UNL1        0.0773
      7 C           4.6783   -0.7493    0.0000 C.2     1  UNL1       -0.0550
      8 C           2.0000   -0.4446    0.0000 C.3     1  UNL1       -0.0258
      9 C           2.8660    1.0554    0.0000 C.2     1  UNL1       -0.0777
     10 C           3.7320    1.5554    0.0000 C.3     1  UNL1       -0.0520
     11 C           4.9889    1.8106    0.0000 C.3     1  UNL1       -0.0587
     12 C           2.0000    0.5554    0.0000 C.2     1  UNL1       -0.0863
     13 C           2.3660   -1.8106    0.0000 C.3     1  UNL1       -0.0558
     14 C           3.3660   -1.8106    0.0000 C.3     1  UNL1       -0.0558
     15 H           5.2908    0.9563    0.0000 H       1  UNL1        0.0338
     16 H           5.5436   -0.4969    0.0000 H       1  UNL1        0.0641
     17 H           4.8709   -1.3387    0.0000 H       1  UNL1        0.0598
     18 H           1.3894   -0.3370    0.0000 H       1  UNL1        0.0316
     19 H           1.7880   -1.0272    0.0000 H       1  UNL1        0.0316
     20 H           2.8660    1.6754    0.0000 H       1  UNL1        0.0578
     21 H           4.3520    1.5554    0.0000 H       1  UNL1        0.0241
     22 H           3.7320    2.1754    0.0000 H       1  UNL1        0.0241
     23 H           3.1120    1.5554    0.0000 H       1  UNL1        0.0241
     24 H           5.5783    1.6180    0.0000 H       1  UNL1        0.0234
     25 H           5.1815    2.4000    0.0000 H       1  UNL1        0.0234
     26 H           4.3996    2.0032    0.0000 H       1  UNL1        0.0234
     27 H           1.4631    0.8654    0.0000 H       1  UNL1        0.0569
     28 H           1.8291   -1.5006    0.0000 H       1  UNL1        0.0238
     29 H           2.0560   -2.3476    0.0000 H       1  UNL1        0.0238
     30 H           2.9030   -2.1206    0.0000 H       1  UNL1        0.0238
     31 H           2.8291   -2.1206    0.0000 H       1  UNL1        0.0238
     32 H           3.6760   -2.3476    0.0000 H       1  UNL1        0.0238
     33 H           3.9030   -1.5006    0.0000 H       1  UNL1        0.0238
     34 H           6.5719   -0.4815    0.0000 H       1  UNL1        0.2102
@<TRIPOS>BOND
     1     1     6    1
     2     1    34    1
     3     2     3    1
     4     2     4    1
     5     2     9    1
     6     2    10    1
     7     3     6    1
     8     3    11    1
     9     3    15    1
    10     4     5    1
    11     4     7    2
    12     5     8    1
    13     5    13    1
    14     5    14    1
    15     6     7    1
    16     6    16    1
    17     7    17    1
    18     8    12    1
    19     8    18    1
    20     8    19    1
    21     9    12    2
    22     9    20    1
    23    10    21    1
    24    10    22    1
    25    10    23    1
    26    11    24    1
    27    11    25    1
    28    11    26    1
    29    12    27    1
    30    13    28    1
    31    13    29    1
    32    13    30    1
    33    14    31    1
    34    14    32    1
    35    14    33    1
