@<TRIPOS>MOLECULE
IMPHY010199
 25 24 0 0 0
SMALL
GASTEIGER

@<TRIPOS>ATOM
      1 O           8.0622   -0.0600    0.0000 O.3     1  UNL1       -0.3947
      2 C           2.8660   -0.0600    0.0000 C.3     1  UNL1       -0.0433
      3 C           3.7320    0.4400    0.0000 C.3     1  UNL1       -0.0324
      4 C           2.0000    0.4400    0.0000 C.3     1  UNL1       -0.0624
      5 C           2.8660   -1.0600    0.0000 C.3     1  UNL1       -0.0624
      6 C           4.5981   -0.0600    0.0000 C.2     1  UNL1       -0.0876
      7 C           5.4641    0.4400    0.0000 C.2     1  UNL1       -0.0858
      8 C           6.3301   -0.0600    0.0000 C.3     1  UNL1       -0.0115
      9 C           7.1962    0.4400    0.0000 C.3     1  UNL1        0.0476
     10 H           2.8660    0.5600    0.0000 H       1  UNL1        0.0298
     11 H           4.1306    0.9149    0.0000 H       1  UNL1        0.0310
     12 H           3.3335    0.9149    0.0000 H       1  UNL1        0.0310
     13 H           2.3100    0.9769    0.0000 H       1  UNL1        0.0232
     14 H           1.4631    0.7500    0.0000 H       1  UNL1        0.0232
     15 H           1.6900   -0.0969    0.0000 H       1  UNL1        0.0232
     16 H           2.2460   -1.0600    0.0000 H       1  UNL1        0.0232
     17 H           2.8660   -1.6800    0.0000 H       1  UNL1        0.0232
     18 H           3.4860   -1.0600    0.0000 H       1  UNL1        0.0232
     19 H           4.5981   -0.6800    0.0000 H       1  UNL1        0.0569
     20 H           5.4641    1.0600    0.0000 H       1  UNL1        0.0570
     21 H           5.9316   -0.5349    0.0000 H       1  UNL1        0.0329
     22 H           6.7287   -0.5349    0.0000 H       1  UNL1        0.0329
     23 H           7.5947    0.9149    0.0000 H       1  UNL1        0.0560
     24 H           6.7976    0.9149    0.0000 H       1  UNL1        0.0560
     25 H           8.5991    0.2500    0.0000 H       1  UNL1        0.2094
@<TRIPOS>BOND
     1     1     9    1
     2     1    25    1
     3     2     3    1
     4     2     4    1
     5     2     5    1
     6     2    10    1
     7     3     6    1
     8     3    11    1
     9     3    12    1
    10     4    13    1
    11     4    14    1
    12     4    15    1
    13     5    16    1
    14     5    17    1
    15     5    18    1
    16     6     7    2
    17     6    19    1
    18     7     8    1
    19     7    20    1
    20     8     9    1
    21     8    21    1
    22     8    22    1
    23     9    23    1
    24     9    24    1
