@<TRIPOS>MOLECULE
IMPHY014925
 24 24 0 0 0
SMALL
GASTEIGER

@<TRIPOS>ATOM
      1 O           4.2690    1.0000    0.0000 O.3     1  UNL1       -0.3407
      2 O           2.5369   -1.0000    0.0000 O.3     1  UNL1       -0.3865
      3 O           4.2690   -2.0000    0.0000 O.3     1  UNL1       -0.3864
      4 O           6.0010   -1.0000    0.0000 O.3     1  UNL1       -0.3841
      5 O           6.0010    1.0000    0.0000 O.3     1  UNL1       -0.3649
      6 O           2.5369    2.0000    0.0000 O.3     1  UNL1       -0.3924
      7 C           3.4030   -0.5000    0.0000 C.3     1  UNL1        0.1119
      8 C           4.2690   -1.0000    0.0000 C.3     1  UNL1        0.1141
      9 C           3.4030    0.5000    0.0000 C.3     1  UNL1        0.1130
     10 C           5.1350   -0.5000    0.0000 C.3     1  UNL1        0.1339
     11 C           5.1350    0.5000    0.0000 C.3     1  UNL1        0.1854
     12 C           2.5369    1.0000    0.0000 C.3     1  UNL1        0.0730
     13 H           3.4030   -1.1200    0.0000 H       1  UNL1        0.0647
     14 H           3.7320   -1.3100    0.0000 H       1  UNL1        0.0648
     15 H           3.4030    1.1200    0.0000 H       1  UNL1        0.0647
     16 H           5.1350   -1.1200    0.0000 H       1  UNL1        0.0671
     17 H           5.1350    1.1200    0.0000 H       1  UNL1        0.0935
     18 H           1.9264    1.1077    0.0000 H       1  UNL1        0.0584
     19 H           2.3249    0.4174    0.0000 H       1  UNL1        0.0584
     20 H           2.0000   -0.6900    0.0000 H       1  UNL1        0.2100
     21 H           4.8059   -2.3100    0.0000 H       1  UNL1        0.2100
     22 H           6.5380   -0.6900    0.0000 H       1  UNL1        0.2101
     23 H           6.0010    1.6200    0.0000 H       1  UNL1        0.2126
     24 H           2.0000    2.3100    0.0000 H       1  UNL1        0.2095
@<TRIPOS>BOND
     1     1     9    1
     2     1    11    1
     3     7     2    1
     4     2    20    1
     5     8     3    1
     6     3    21    1
     7    10     4    1
     8     4    22    1
     9    11     5    1
    10     5    23    1
    11     6    12    1
    12     6    24    1
    13     7     8    1
    14     7     9    1
    15     7    13    1
    16     8    10    1
    17     8    14    1
    18     9    12    1
    19     9    15    1
    20    10    11    1
    21    10    16    1
    22    11    17    1
    23    12    18    1
    24    12    19    1
