@<TRIPOS>MOLECULE
IMPHY002520
 27 28 0 0 0
SMALL
GASTEIGER

@<TRIPOS>ATOM
      1 O           2.6709    1.2242    0.0000 O.2     1  UNL1       -0.3005
      2 C           4.9143    0.1419    0.0000 C.3     1  UNL1       -0.0314
      3 C           4.9143   -0.8581    0.0000 C.3     1  UNL1       -0.0314
      4 C           5.7808   -0.3581    0.0000 C.3     1  UNL1       -0.0286
      5 C           3.9632   -1.1672    0.0000 C.3     1  UNL1       -0.0376
      6 C           3.9632    0.4509    0.0000 C.3     1  UNL1       -0.0376
      7 C           3.3754   -0.3581    0.0000 C.3     1  UNL1        0.0237
      8 C           6.2808   -1.2242    0.0000 C.3     1  UNL1       -0.0593
      9 C           6.2808    0.5079    0.0000 C.3     1  UNL1       -0.0593
     10 C           2.5664   -0.9459    0.0000 C.3     1  UNL1       -0.0531
     11 C           2.5664    0.2296    0.0000 C.2     1  UNL1        0.1262
     12 H           5.1664    0.7083    0.0000 H       1  UNL1        0.0309
     13 H           5.1664   -1.4246    0.0000 H       1  UNL1        0.0309
     14 H           4.2154    1.0173    0.0000 H       1  UNL1        0.0277
     15 H           3.4263    0.7609    0.0000 H       1  UNL1        0.0277
     16 H           3.4263   -1.4772    0.0000 H       1  UNL1        0.0277
     17 H           4.2154   -1.7336    0.0000 H       1  UNL1        0.0277
     18 H           5.7439   -1.5342    0.0000 H       1  UNL1        0.0235
     19 H           6.5908   -1.7611    0.0000 H       1  UNL1        0.0235
     20 H           6.8177   -0.9142    0.0000 H       1  UNL1        0.0235
     21 H           6.8177    0.1979    0.0000 H       1  UNL1        0.0235
     22 H           6.5908    1.0448    0.0000 H       1  UNL1        0.0235
     23 H           5.7439    0.8179    0.0000 H       1  UNL1        0.0235
     24 H           2.2020   -0.4443    0.0000 H       1  UNL1        0.0239
     25 H           2.0648   -1.3103    0.0000 H       1  UNL1        0.0239
     26 H           2.9308   -1.4475    0.0000 H       1  UNL1        0.0239
     27 H           2.0000   -0.0225    0.0000 H       1  UNL1        0.1032
@<TRIPOS>BOND
     1     1    11    2
     2     2     3    1
     3     2     4    1
     4     2     6    1
     5     2    12    1
     6     3     4    1
     7     3     5    1
     8     3    13    1
     9     4     8    1
    10     4     9    1
    11     5     7    1
    12     5    16    1
    13     5    17    1
    14     6     7    1
    15     6    14    1
    16     6    15    1
    17     7    10    1
    18     7    11    1
    19     8    18    1
    20     8    19    1
    21     8    20    1
    22     9    21    1
    23     9    22    1
    24     9    23    1
    25    10    24    1
    26    10    25    1
    27    10    26    1
    28    11    27    1
