@<TRIPOS>MOLECULE
IMPHY015854
 66 65 0 0 0
SMALL
GASTEIGER

@<TRIPOS>ATOM
      1 O           5.4641   -2.2500    0.0000 O.3     1  UNL1       -0.4646
      2 O           6.3301   -3.7500    0.0000 O.2     1  UNL1       -0.2509
      3 C          15.8564    0.7500    0.0000 C.3     1  UNL1       -0.0530
      4 C           9.7942   -2.7500    0.0000 C.3     1  UNL1       -0.0530
      5 C          14.9904    0.2500    0.0000 C.3     1  UNL1       -0.0528
      6 C          10.6603   -2.2500    0.0000 C.3     1  UNL1       -0.0528
      7 C          15.8564    1.7500    0.0000 C.3     1  UNL1       -0.0531
      8 C           8.9282   -2.2500    0.0000 C.3     1  UNL1       -0.0526
      9 C          14.9904   -0.7500    0.0000 C.3     1  UNL1       -0.0496
     10 C          11.5263   -2.7500    0.0000 C.3     1  UNL1       -0.0496
     11 C          16.7224    2.2500    0.0000 C.3     1  UNL1       -0.0533
     12 C           8.0622   -2.7500    0.0000 C.3     1  UNL1       -0.0430
     13 C          12.3923   -2.2500    0.0000 C.3     1  UNL1       -0.0348
     14 C          14.1244   -1.2500    0.0000 C.3     1  UNL1       -0.0348
     15 C          16.7224    3.2500    0.0000 C.3     1  UNL1       -0.0559
     16 C           7.1962   -2.2500    0.0000 C.3     1  UNL1        0.0449
     17 C          13.2583   -2.7500    0.0000 C.2     1  UNL1       -0.0879
     18 C          14.1244   -2.2500    0.0000 C.2     1  UNL1       -0.0879
     19 C          17.5885    3.7500    0.0000 C.3     1  UNL1       -0.0653
     20 C           6.3301   -2.7500    0.0000 C.2     1  UNL1        0.3071
     21 C           4.5981   -2.7500    0.0000 C.3     1  UNL1        0.0924
     22 C           3.7320   -2.2500    0.0000 C.3     1  UNL1       -0.0188
     23 C           2.8660   -2.7500    0.0000 C.3     1  UNL1       -0.0528
     24 C           2.0000   -2.2500    0.0000 C.3     1  UNL1       -0.0652
     25 H          16.0685    0.1674    0.0000 H       1  UNL1        0.0265
     26 H          16.4670    0.8577    0.0000 H       1  UNL1        0.0265
     27 H           9.3957   -3.2250    0.0000 H       1  UNL1        0.0265
     28 H          10.1928   -3.2250    0.0000 H       1  UNL1        0.0265
     29 H          14.7783    0.8326    0.0000 H       1  UNL1        0.0265
     30 H          14.3798    0.1423    0.0000 H       1  UNL1        0.0265
     31 H          11.0588   -1.7750    0.0000 H       1  UNL1        0.0265
     32 H          10.2617   -1.7750    0.0000 H       1  UNL1        0.0265
     33 H          15.6444    2.3326    0.0000 H       1  UNL1        0.0265
     34 H          15.2458    1.6423    0.0000 H       1  UNL1        0.0265
     35 H           9.3267   -1.7750    0.0000 H       1  UNL1        0.0265
     36 H           8.5297   -1.7750    0.0000 H       1  UNL1        0.0265
     37 H          15.2024   -1.3326    0.0000 H       1  UNL1        0.0268
     38 H          15.6010   -0.6423    0.0000 H       1  UNL1        0.0268
     39 H          11.1278   -3.2250    0.0000 H       1  UNL1        0.0268
     40 H          11.9248   -3.2250    0.0000 H       1  UNL1        0.0268
     41 H          16.9345    1.6674    0.0000 H       1  UNL1        0.0265
     42 H          17.3330    2.3577    0.0000 H       1  UNL1        0.0265
     43 H           7.6636   -3.2250    0.0000 H       1  UNL1        0.0270
     44 H           8.4607   -3.2250    0.0000 H       1  UNL1        0.0270
     45 H          12.7908   -1.7750    0.0000 H       1  UNL1        0.0307
     46 H          11.9938   -1.7750    0.0000 H       1  UNL1        0.0307
     47 H          13.9123   -0.6674    0.0000 H       1  UNL1        0.0307
     48 H          13.5138   -1.3577    0.0000 H       1  UNL1        0.0307
     49 H          16.5104    3.8326    0.0000 H       1  UNL1        0.0263
     50 H          16.1119    3.1423    0.0000 H       1  UNL1        0.0263
     51 H           7.5947   -1.7750    0.0000 H       1  UNL1        0.0377
     52 H           6.7976   -1.7750    0.0000 H       1  UNL1        0.0377
     53 H          13.2583   -3.3700    0.0000 H       1  UNL1        0.0569
     54 H          14.6613   -2.5600    0.0000 H       1  UNL1        0.0569
     55 H          17.8985    3.2131    0.0000 H       1  UNL1        0.0230
     56 H          18.1254    4.0600    0.0000 H       1  UNL1        0.0230
     57 H          17.2785    4.2869    0.0000 H       1  UNL1        0.0230
     58 H           4.1996   -3.2250    0.0000 H       1  UNL1        0.0697
     59 H           4.9966   -3.2250    0.0000 H       1  UNL1        0.0697
     60 H           4.1306   -1.7750    0.0000 H       1  UNL1        0.0298
     61 H           3.3335   -1.7750    0.0000 H       1  UNL1        0.0298
     62 H           2.4675   -3.2250    0.0000 H       1  UNL1        0.0264
     63 H           3.2646   -3.2250    0.0000 H       1  UNL1        0.0264
     64 H           2.3100   -1.7131    0.0000 H       1  UNL1        0.0230
     65 H           1.4631   -1.9400    0.0000 H       1  UNL1        0.0230
     66 H           1.6900   -2.7869    0.0000 H       1  UNL1        0.0230
@<TRIPOS>BOND
     1     1    20    1
     2     1    21    1
     3     2    20    2
     4     3     5    1
     5     3     7    1
     6     3    25    1
     7     3    26    1
     8     4     6    1
     9     4     8    1
    10     4    27    1
    11     4    28    1
    12     5     9    1
    13     5    29    1
    14     5    30    1
    15     6    10    1
    16     6    31    1
    17     6    32    1
    18     7    11    1
    19     7    33    1
    20     7    34    1
    21     8    12    1
    22     8    35    1
    23     8    36    1
    24     9    14    1
    25     9    37    1
    26     9    38    1
    27    10    13    1
    28    10    39    1
    29    10    40    1
    30    11    15    1
    31    11    41    1
    32    11    42    1
    33    12    16    1
    34    12    43    1
    35    12    44    1
    36    13    17    1
    37    13    45    1
    38    13    46    1
    39    14    18    1
    40    14    47    1
    41    14    48    1
    42    15    19    1
    43    15    49    1
    44    15    50    1
    45    16    20    1
    46    16    51    1
    47    16    52    1
    48    17    18    2
    49    17    53    1
    50    18    54    1
    51    19    55    1
    52    19    56    1
    53    19    57    1
    54    21    22    1
    55    21    58    1
    56    21    59    1
    57    22    23    1
    58    22    60    1
    59    22    61    1
    60    23    24    1
    61    23    62    1
    62    23    63    1
    63    24    64    1
    64    24    65    1
    65    24    66    1
