@<TRIPOS>MOLECULE
IMPHY010097
 28 29 0 0 0
SMALL
GASTEIGER

@<TRIPOS>ATOM
      1 O           3.7320    0.2500    0.0000 O.3     1  UNL1       -0.4564
      2 O           2.0000    0.2500    0.0000 O.2     1  UNL1       -0.2450
      3 C           4.5981    1.7500    0.0000 C.ar    1  UNL1       -0.0103
      4 C           3.7320    1.2500    0.0000 C.3     1  UNL1        0.1178
      5 C           2.8660   -1.2500    0.0000 C.ar    1  UNL1        0.0590
      6 C           4.5981    2.7500    0.0000 C.ar    1  UNL1       -0.0554
      7 C           5.4641    1.2500    0.0000 C.ar    1  UNL1       -0.0554
      8 C           2.8660   -0.2500    0.0000 C.2     1  UNL1        0.3395
      9 C           5.4641    3.2500    0.0000 C.ar    1  UNL1       -0.0614
     10 C           6.3301    1.7500    0.0000 C.ar    1  UNL1       -0.0614
     11 C           2.0000   -1.7500    0.0000 C.ar    1  UNL1       -0.0478
     12 C           3.7320   -1.7500    0.0000 C.ar    1  UNL1       -0.0478
     13 C           6.3301    2.7500    0.0000 C.ar    1  UNL1       -0.0617
     14 C           2.0000   -2.7500    0.0000 C.ar    1  UNL1       -0.0610
     15 C           3.7320   -2.7500    0.0000 C.ar    1  UNL1       -0.0610
     16 C           2.8660   -3.2500    0.0000 C.ar    1  UNL1       -0.0617
     17 H           3.5200    1.8326    0.0000 H       1  UNL1        0.0749
     18 H           3.1215    1.1423    0.0000 H       1  UNL1        0.0749
     19 H           4.0611    3.0600    0.0000 H       1  UNL1        0.0621
     20 H           5.4641    0.6300    0.0000 H       1  UNL1        0.0621
     21 H           5.4641    3.8700    0.0000 H       1  UNL1        0.0618
     22 H           6.8671    1.4400    0.0000 H       1  UNL1        0.0618
     23 H           1.4631   -1.4400    0.0000 H       1  UNL1        0.0626
     24 H           4.2690   -1.4400    0.0000 H       1  UNL1        0.0626
     25 H           6.8671    3.0600    0.0000 H       1  UNL1        0.0618
     26 H           1.4631   -3.0600    0.0000 H       1  UNL1        0.0618
     27 H           4.2690   -3.0600    0.0000 H       1  UNL1        0.0618
     28 H           2.8660   -3.8700    0.0000 H       1  UNL1        0.0618
@<TRIPOS>BOND
     1     1     4    1
     2     1     8    1
     3     2     8    2
     4     3     4    1
     5     3     6   ar
     6     3     7   ar
     7     4    17    1
     8     4    18    1
     9     5     8    1
    10     5    11   ar
    11     5    12   ar
    12     6     9   ar
    13     6    19    1
    14     7    10   ar
    15     7    20    1
    16     9    13   ar
    17     9    21    1
    18    10    13   ar
    19    10    22    1
    20    11    14   ar
    21    11    23    1
    22    12    15   ar
    23    12    24    1
    24    13    25    1
    25    14    16   ar
    26    14    26    1
    27    15    16   ar
    28    15    27    1
    29    16    28    1
