@<TRIPOS>MOLECULE
IMPHY007220
 47 48 0 0 0
SMALL
GASTEIGER

@<TRIPOS>ATOM
      1 O           4.5981    3.3722    0.0000 O.2     1  UNL1       -0.5058
      2 O           4.5981   -0.6278    0.0000 O.2     1  UNL1       -0.2832
      3 O           2.8660    0.3722    0.0000 O.2     1  UNL1       -0.2834
      4 C           6.3580    0.3376    0.0000 C.ar    1  UNL1       -0.0328
      5 C           5.4641    0.8722    0.0000 C.ar    1  UNL1        0.0396
      6 C           6.3465   -0.6624    0.0000 C.3     1  UNL1       -0.0264
      7 C           5.4641    1.8722    0.0000 C.ar    1  UNL1        0.0280
      8 C           3.7320    1.8722    0.0000 C.2     1  UNL1        0.0476
      9 C           2.8660    2.3722    0.0000 C.3     1  UNL1       -0.0143
     10 C           7.2067   -1.1724    0.0000 C.3     1  UNL1       -0.0454
     11 C           7.2641    0.8514    0.0000 C.ar    1  UNL1       -0.0466
     12 C           4.5981    2.3722    0.0000 C.2     1  UNL1        0.1318
     13 C           4.5981    0.3722    0.0000 C.2     1  UNL1        0.2337
     14 C           3.7320    0.8722    0.0000 C.2     1  UNL1        0.2327
     15 C           6.3580    2.4069    0.0000 C.ar    1  UNL1       -0.0501
     16 C           7.1951   -2.1723    0.0000 C.3     1  UNL1       -0.0320
     17 C           7.2641    1.8930    0.0000 C.ar    1  UNL1       -0.0579
     18 C           2.0000    1.8722    0.0000 C.3     1  UNL1       -0.0584
     19 C           2.8660    3.3722    0.0000 C.3     1  UNL1       -0.0584
     20 C           8.1282    0.3481    0.0000 C.3     1  UNL1       -0.0394
     21 C           8.0553   -2.6823    0.0000 C.2     1  UNL1       -0.0797
     22 C           8.0437   -3.6822    0.0000 C.3     1  UNL1       -0.0440
     23 C           8.9270   -2.1923    0.0000 C.2     1  UNL1       -0.0997
     24 H           5.7372   -0.5477    0.0000 H       1  UNL1        0.0314
     25 H           6.1277   -1.2425    0.0000 H       1  UNL1        0.0314
     26 H           2.8660    1.7522    0.0000 H       1  UNL1        0.0346
     27 H           7.8160   -1.2871    0.0000 H       1  UNL1        0.0271
     28 H           7.4254   -0.5922    0.0000 H       1  UNL1        0.0271
     29 H           6.3509    3.0268    0.0000 H       1  UNL1        0.0625
     30 H           6.5858   -2.0576    0.0000 H       1  UNL1        0.0310
     31 H           6.9763   -2.7524    0.0000 H       1  UNL1        0.0310
     32 H           7.7998    2.2051    0.0000 H       1  UNL1        0.0620
     33 H           1.6900    2.4092    0.0000 H       1  UNL1        0.0235
     34 H           1.4631    1.5622    0.0000 H       1  UNL1        0.0235
     35 H           2.3100    1.3353    0.0000 H       1  UNL1        0.0235
     36 H           3.4860    3.3722    0.0000 H       1  UNL1        0.0235
     37 H           2.8660    3.9922    0.0000 H       1  UNL1        0.0235
     38 H           2.2460    3.3722    0.0000 H       1  UNL1        0.0235
     39 H           7.8161   -0.1877    0.0000 H       1  UNL1        0.0278
     40 H           8.6639    0.0360    0.0000 H       1  UNL1        0.0278
     41 H           8.4403    0.8838    0.0000 H       1  UNL1        0.0278
     42 H           5.1350    3.6822    0.0000 H       1  UNL1        0.2922
     43 H           7.4238   -3.6750    0.0000 H       1  UNL1        0.0274
     44 H           8.0366   -4.3022    0.0000 H       1  UNL1        0.0274
     45 H           8.6637   -3.6894    0.0000 H       1  UNL1        0.0274
     46 H           9.4604   -2.5085    0.0000 H       1  UNL1        0.0534
     47 H           8.9342   -1.5724    0.0000 H       1  UNL1        0.0534
@<TRIPOS>BOND
     1     1    12    1
     2     1    42    1
     3     2    13    2
     4     3    14    2
     5     4     5   ar
     6     4     6    1
     7     4    11   ar
     8     5     7   ar
     9     5    13    1
    10     6    10    1
    11     6    24    1
    12     6    25    1
    13     7    12    1
    14     7    15   ar
    15     8     9    1
    16     8    12    2
    17     8    14    1
    18     9    18    1
    19     9    19    1
    20     9    26    1
    21    10    16    1
    22    10    27    1
    23    10    28    1
    24    11    17   ar
    25    11    20    1
    26    13    14    1
    27    15    17   ar
    28    15    29    1
    29    16    21    1
    30    16    30    1
    31    16    31    1
    32    17    32    1
    33    18    33    1
    34    18    34    1
    35    18    35    1
    36    19    36    1
    37    19    37    1
    38    19    38    1
    39    20    39    1
    40    20    40    1
    41    20    41    1
    42    21    22    1
    43    21    23    2
    44    22    43    1
    45    22    44    1
    46    22    45    1
    47    23    46    1
    48    23    47    1
