@<TRIPOS>MOLECULE
IMPHY009943
 88 94 0 0 0
SMALL
GASTEIGER

@<TRIPOS>ATOM
      1 O           7.3700   -2.2681    0.0000 O.3     1  UNL1       -0.4478
      2 O           6.8654   -1.0506    0.0000 O.3     1  UNL1       -0.4885
      3 O           5.1584   -0.0651    0.0000 O.3     1  UNL1       -0.4913
      4 O           9.9145   -2.5804    0.0000 O.3     1  UNL1       -0.4913
      5 O           8.0241   -2.9666    0.0000 O.3     1  UNL1       -0.5009
      6 O           3.0573    1.5435    0.0000 O.3     1  UNL1       -0.4523
      7 O           7.3456    2.9972    0.0000 O.2     1  UNL1       -0.2793
      8 O           3.3771    3.4948    0.0000 O.3     1  UNL1       -0.4914
      9 N           3.4765   -3.9783    0.0000 N.3     1  UNL1       -0.2978
     10 N           7.6722    1.2962    0.0000 N.am    1  UNL1       -0.2962
     11 C           3.4765   -3.0072    0.0000 C.3     1  UNL1        0.0398
     12 C           7.3540    0.3788    0.0000 C.3     1  UNL1        0.0587
     13 C           4.3174   -2.5217    0.0000 C.ar    1  UNL1       -0.0196
     14 C           5.1584   -3.0072    0.0000 C.ar    1  UNL1        0.0047
     15 C           4.3174   -4.4638    0.0000 C.3     1  UNL1        0.0033
     16 C           5.1584   -3.9783    0.0000 C.3     1  UNL1       -0.0109
     17 C           7.9894   -0.3556    0.0000 C.ar    1  UNL1        0.0226
     18 C           2.6355   -2.5217    0.0000 C.3     1  UNL1       -0.0079
     19 C           8.9430   -0.1724    0.0000 C.ar    1  UNL1       -0.0337
     20 C           9.2613    0.7450    0.0000 C.3     1  UNL1       -0.0113
     21 C           8.6259    1.4793    0.0000 C.3     1  UNL1        0.0190
     22 C           5.9889   -2.5487    0.0000 C.ar    1  UNL1        0.1772
     23 C           6.1184    0.4941    0.0000 C.3     1  UNL1       -0.0046
     24 C           7.6711   -1.2730    0.0000 C.ar    1  UNL1        0.1787
     25 C           4.3174   -1.5506    0.0000 C.ar    1  UNL1       -0.0111
     26 C           2.6104   -4.4783    0.0000 C.3     1  UNL1       -0.0122
     27 C           5.9994   -1.5506    0.0000 C.ar    1  UNL1        0.2044
     28 C           2.7936   -1.3578    0.0000 C.ar    1  UNL1       -0.0453
     29 C           5.1584   -1.0651    0.0000 C.ar    1  UNL1        0.1655
     30 C           9.5784   -0.9068    0.0000 C.ar    1  UNL1       -0.0125
     31 C           8.3066   -2.0074    0.0000 C.ar    1  UNL1        0.2020
     32 C           5.6167    1.5869    0.0000 C.ar    1  UNL1       -0.0416
     33 C           9.2602   -1.8242    0.0000 C.ar    1  UNL1        0.1653
     34 C           7.0179    2.0524    0.0000 C.2     1  UNL1        0.2030
     35 C           2.0000   -0.7981    0.0000 C.ar    1  UNL1       -0.0550
     36 C           3.6750   -0.9504    0.0000 C.ar    1  UNL1       -0.0550
     37 C           4.7018    1.2616    0.0000 C.ar    1  UNL1       -0.0124
     38 C           5.7925    2.5419    0.0000 C.ar    1  UNL1       -0.0548
     39 C           3.9625    1.8913    0.0000 C.ar    1  UNL1        0.1701
     40 C           2.0879    0.1690    0.0000 C.ar    1  UNL1       -0.0191
     41 C           3.7630    0.0167    0.0000 C.ar    1  UNL1       -0.0191
     42 C           2.9694    0.5764    0.0000 C.ar    1  UNL1        0.1286
     43 C           5.0532    3.1716    0.0000 C.ar    1  UNL1       -0.0160
     44 C           4.1383    2.8463    0.0000 C.ar    1  UNL1        0.1621
     45 C           6.8654   -0.0506    0.0000 C.3     1  UNL1        0.0791
     46 C           4.2924    0.4349    0.0000 C.3     1  UNL1        0.0790
     47 C          10.8966   -2.3919    0.0000 C.3     1  UNL1        0.0790
     48 C           3.5580    4.4783    0.0000 C.3     1  UNL1        0.0790
     49 H           2.7404   -3.4322    0.0000 H       1  UNL1        0.0515
     50 H           6.8939    1.0935    0.0000 H       1  UNL1        0.0555
     51 H           3.9189   -4.9388    0.0000 H       1  UNL1        0.0430
     52 H           4.7160   -4.9388    0.0000 H       1  UNL1        0.0430
     53 H           5.3705   -4.5609    0.0000 H       1  UNL1        0.0327
     54 H           5.7690   -3.8706    0.0000 H       1  UNL1        0.0327
     55 H           2.0371   -2.3596    0.0000 H       1  UNL1        0.0332
     56 H           2.3974   -3.0942    0.0000 H       1  UNL1        0.0332
     57 H           9.8029    0.4432    0.0000 H       1  UNL1        0.0328
     58 H           9.6526    1.2259    0.0000 H       1  UNL1        0.0328
     59 H           9.1580    1.7974    0.0000 H       1  UNL1        0.0468
     60 H           8.4050    2.0586    0.0000 H       1  UNL1        0.0468
     61 H           5.5186    0.3371    0.0000 H       1  UNL1        0.0334
     62 H           6.1688   -0.1239    0.0000 H       1  UNL1        0.0334
     63 H           3.7805   -1.2406    0.0000 H       1  UNL1        0.0659
     64 H           2.3004   -3.9414    0.0000 H       1  UNL1        0.0391
     65 H           2.0735   -4.7883    0.0000 H       1  UNL1        0.0391
     66 H           2.9204   -5.0152    0.0000 H       1  UNL1        0.0391
     67 H          10.1873   -0.7899    0.0000 H       1  UNL1        0.0658
     68 H           6.4090    1.9355    0.0000 H       1  UNL1        0.1253
     69 H           1.4372   -1.0582    0.0000 H       1  UNL1        0.0621
     70 H           4.1817   -1.3077    0.0000 H       1  UNL1        0.0621
     71 H           4.5895    0.6518    0.0000 H       1  UNL1        0.0658
     72 H           6.3766    2.7496    0.0000 H       1  UNL1        0.0621
     73 H           1.5812    0.5263    0.0000 H       1  UNL1        0.0654
     74 H           4.3258    0.2768    0.0000 H       1  UNL1        0.0654
     75 H           8.4517   -3.4157    0.0000 H       1  UNL1        0.2924
     76 H           5.1655    3.7814    0.0000 H       1  UNL1        0.0655
     77 H           7.4854   -0.0506    0.0000 H       1  UNL1        0.0660
     78 H           6.8654    0.5694    0.0000 H       1  UNL1        0.0660
     79 H           6.2454   -0.0506    0.0000 H       1  UNL1        0.0660
     80 H           4.6024    0.9719    0.0000 H       1  UNL1        0.0660
     81 H           3.7554    0.7449    0.0000 H       1  UNL1        0.0660
     82 H           3.9824   -0.1020    0.0000 H       1  UNL1        0.0660
     83 H          11.0135   -3.0007    0.0000 H       1  UNL1        0.0660
     84 H          11.5055   -2.2750    0.0000 H       1  UNL1        0.0660
     85 H          10.7797   -1.7830    0.0000 H       1  UNL1        0.0660
     86 H           4.1678    4.3661    0.0000 H       1  UNL1        0.0660
     87 H           3.6703    5.0880    0.0000 H       1  UNL1        0.0660
     88 H           2.9483    4.5905    0.0000 H       1  UNL1        0.0660
@<TRIPOS>BOND
     1     1    22    1
     2     1    24    1
     3     2    27    1
     4     2    45    1
     5     3    29    1
     6     3    46    1
     7     4    33    1
     8     4    47    1
     9     5    31    1
    10     5    75    1
    11     6    39    1
    12     6    42    1
    13     7    34    2
    14     8    44    1
    15     8    48    1
    16     9    11    1
    17     9    15    1
    18     9    26    1
    19    10    12    1
    20    10    21    1
    21    10    34   am
    22    11    13    1
    23    11    18    1
    24    11    49    1
    25    12    17    1
    26    12    23    1
    27    12    50    1
    28    13    14   ar
    29    13    25   ar
    30    14    16    1
    31    14    22   ar
    32    15    16    1
    33    15    51    1
    34    15    52    1
    35    16    53    1
    36    16    54    1
    37    17    19   ar
    38    17    24   ar
    39    18    28    1
    40    18    55    1
    41    18    56    1
    42    19    20    1
    43    19    30   ar
    44    20    21    1
    45    20    57    1
    46    20    58    1
    47    21    59    1
    48    21    60    1
    49    22    27   ar
    50    23    32    1
    51    23    61    1
    52    23    62    1
    53    24    31   ar
    54    25    29   ar
    55    25    63    1
    56    26    64    1
    57    26    65    1
    58    26    66    1
    59    27    29   ar
    60    28    35   ar
    61    28    36   ar
    62    30    33   ar
    63    30    67    1
    64    31    33   ar
    65    32    37   ar
    66    32    38   ar
    67    34    68    1
    68    35    40   ar
    69    35    69    1
    70    36    41   ar
    71    36    70    1
    72    37    39   ar
    73    37    71    1
    74    38    43   ar
    75    38    72    1
    76    39    44   ar
    77    40    42   ar
    78    40    73    1
    79    41    42   ar
    80    41    74    1
    81    43    44   ar
    82    43    76    1
    83    45    77    1
    84    45    78    1
    85    45    79    1
    86    46    80    1
    87    46    81    1
    88    46    82    1
    89    47    83    1
    90    47    84    1
    91    47    85    1
    92    48    86    1
    93    48    87    1
    94    48    88    1
