@<TRIPOS>MOLECULE
IMPHY001261
 76 80 0 0 0
SMALL
GASTEIGER

@<TRIPOS>ATOM
      1 O           7.3494    0.9405    0.0000 O.3     1  UNL1       -0.3585
      2 O           7.9771   -1.9063    0.0000 O.3     1  UNL1       -0.4581
      3 O           5.3307    1.6441    0.0000 O.3     1  UNL1       -0.3888
      4 O           7.0628    2.6441    0.0000 O.3     1  UNL1       -0.3858
      5 O           9.6906    0.1796    0.0000 O.3     1  UNL1       -0.4464
      6 O           9.4288    2.0101    0.0000 O.3     1  UNL1       -0.4659
      7 O           7.9288    2.8761    0.0000 O.2     1  UNL1       -0.2475
      8 O           9.7386   -1.8589    0.0000 O.2     1  UNL1       -0.2466
      9 O           2.5357   -1.9082    0.0000 O.2     1  UNL1       -0.5034
     10 O           2.5519    0.1834    0.0000 O.2     1  UNL1       -0.2888
     11 O          10.5974   -1.2961    0.0000 O.2     1  UNL1       -0.2456
     12 O          14.0054    0.7981    0.0000 O.3     1  UNL1       -0.3848
     13 C           7.0628   -0.3559    0.0000 C.3     1  UNL1        0.0468
     14 C           6.1968    0.1441    0.0000 C.3     1  UNL1        0.0055
     15 C           7.9288    0.1441    0.0000 C.3     1  UNL1        0.0603
     16 C           5.2868   -0.3628    0.0000 C.3     1  UNL1       -0.0123
     17 C           7.9288    1.1441    0.0000 C.3     1  UNL1        0.2007
     18 C           7.0789   -1.3974    0.0000 C.3     1  UNL1        0.1123
     19 C           6.1968    1.1441    0.0000 C.3     1  UNL1        0.0884
     20 C           5.2787   -1.4044    0.0000 C.3     1  UNL1       -0.0068
     21 C           6.9494    0.2477    0.0000 C.3     1  UNL1        0.0591
     22 C           7.0628    1.6441    0.0000 C.3     1  UNL1        0.1210
     23 C           6.1808   -1.9252    0.0000 C.3     1  UNL1       -0.0079
     24 C           8.8386   -0.3439    0.0000 C.3     1  UNL1        0.2059
     25 C           4.3599    0.2013    0.0000 C.3     1  UNL1        0.0198
     26 C           4.9520    0.5795    0.0000 C.3     1  UNL1       -0.0583
     27 C           4.3433   -1.9541    0.0000 C.2     1  UNL1       -0.0240
     28 C           8.4288    2.0101    0.0000 C.2     1  UNL1        0.3423
     29 C           8.8629   -1.3760    0.0000 C.2     1  UNL1        0.3491
     30 C           3.4120   -0.3266    0.0000 C.2     1  UNL1        0.1976
     31 C           3.4037   -1.4116    0.0000 C.2     1  UNL1        0.1584
     32 C           4.3472   -2.9541    0.0000 C.3     1  UNL1       -0.0397
     33 C          10.5700   -0.2965    0.0000 C.2     1  UNL1        0.3328
     34 C           9.9288    2.8761    0.0000 C.3     1  UNL1        0.0818
     35 C          11.4220    0.2271    0.0000 C.2     1  UNL1        0.0242
     36 C          12.3014   -0.2490    0.0000 C.2     1  UNL1       -0.0353
     37 C          13.1534    0.2745    0.0000 C.3     1  UNL1        0.0817
     38 C          12.3288   -1.2486    0.0000 C.3     1  UNL1       -0.0406
     39 C          13.6769   -0.5775    0.0000 C.3     1  UNL1       -0.0324
     40 C          12.6299    1.1265    0.0000 C.3     1  UNL1       -0.0324
     41 H           5.4606    0.5691    0.0000 H       1  UNL1        0.0339
     42 H           8.3538   -0.5920    0.0000 H       1  UNL1        0.0384
     43 H           7.0856   -2.2474    0.0000 H       1  UNL1        0.0740
     44 H           6.1968    1.7641    0.0000 H       1  UNL1        0.0623
     45 H           5.2820   -2.2544    0.0000 H       1  UNL1        0.0353
     46 H           6.5222    0.6971    0.0000 H       1  UNL1        0.0567
     47 H           6.3974   -0.0347    0.0000 H       1  UNL1        0.0567
     48 H           7.5997    1.9541    0.0000 H       1  UNL1        0.0654
     49 H           5.7835   -2.4012    0.0000 H       1  UNL1        0.0307
     50 H           6.5818   -2.3981    0.0000 H       1  UNL1        0.0307
     51 H           9.3833   -0.6402    0.0000 H       1  UNL1        0.0857
     52 H           4.7681    0.6680    0.0000 H       1  UNL1        0.0352
     53 H           3.9700    0.6834    0.0000 H       1  UNL1        0.0352
     54 H           5.5362    0.7871    0.0000 H       1  UNL1        0.0235
     55 H           4.7444    1.1638    0.0000 H       1  UNL1        0.0235
     56 H           4.3678    0.3720    0.0000 H       1  UNL1        0.0235
     57 H           5.3307    2.2641    0.0000 H       1  UNL1        0.2099
     58 H           6.5259    2.9541    0.0000 H       1  UNL1        0.2100
     59 H           3.7272   -2.9565    0.0000 H       1  UNL1        0.0276
     60 H           4.3496   -3.5741    0.0000 H       1  UNL1        0.0276
     61 H           4.9672   -2.9517    0.0000 H       1  UNL1        0.0276
     62 H           2.0000   -1.5962    0.0000 H       1  UNL1        0.2923
     63 H          10.4658    2.5661    0.0000 H       1  UNL1        0.0661
     64 H          10.2388    3.4131    0.0000 H       1  UNL1        0.0661
     65 H           9.3919    3.1861    0.0000 H       1  UNL1        0.0661
     66 H          11.4050    0.8468    0.0000 H       1  UNL1        0.0689
     67 H          11.7090   -1.2656    0.0000 H       1  UNL1        0.0275
     68 H          12.3458   -1.8684    0.0000 H       1  UNL1        0.0275
     69 H          12.9486   -1.2317    0.0000 H       1  UNL1        0.0275
     70 H          13.1487   -0.9021    0.0000 H       1  UNL1        0.0260
     71 H          14.0015   -1.1057    0.0000 H       1  UNL1        0.0260
     72 H          14.2052   -0.2529    0.0000 H       1  UNL1        0.0260
     73 H          13.1581    1.4511    0.0000 H       1  UNL1        0.0260
     74 H          12.3053    1.6548    0.0000 H       1  UNL1        0.0260
     75 H          12.1016    0.8019    0.0000 H       1  UNL1        0.0260
     76 H          14.5506    0.5029    0.0000 H       1  UNL1        0.2106
@<TRIPOS>BOND
     1     1    17    1
     2     1    21    1
     3     2    18    1
     4     2    29    1
     5    19     3    1
     6     3    57    1
     7    22     4    1
     8     4    58    1
     9    24     5    1
    10     5    33    1
    11     6    28    1
    12     6    34    1
    13     7    28    2
    14     8    29    2
    15     9    31    1
    16     9    62    1
    17    10    30    2
    18    11    33    2
    19    12    37    1
    20    12    76    1
    21    13    14    1
    22    13    15    1
    23    13    18    1
    24    13    21    1
    25    14    16    1
    26    14    19    1
    27    14    41    1
    28    15    17    1
    29    15    24    1
    30    15    42    1
    31    16    20    1
    32    16    25    1
    33    16    26    1
    34    17    22    1
    35    17    28    1
    36    18    23    1
    37    18    43    1
    38    19    22    1
    39    19    44    1
    40    20    23    1
    41    20    27    1
    42    20    45    1
    43    21    46    1
    44    21    47    1
    45    22    48    1
    46    23    49    1
    47    23    50    1
    48    24    29    1
    49    24    51    1
    50    25    30    1
    51    25    52    1
    52    25    53    1
    53    26    54    1
    54    26    55    1
    55    26    56    1
    56    27    31    2
    57    27    32    1
    58    30    31    1
    59    32    59    1
    60    32    60    1
    61    32    61    1
    62    33    35    1
    63    34    63    1
    64    34    64    1
    65    34    65    1
    66    35    36    2
    67    35    66    1
    68    36    37    1
    69    36    38    1
    70    37    39    1
    71    37    40    1
    72    38    67    1
    73    38    68    1
    74    38    69    1
    75    39    70    1
    76    39    71    1
    77    39    72    1
    78    40    73    1
    79    40    74    1
    80    40    75    1
