@<TRIPOS>MOLECULE
IMPHY009896
 85 90 0 0 0
SMALL
GASTEIGER

@<TRIPOS>ATOM
      1 O          10.9753    2.1503    0.0000 O.3     1  UNL1       -0.3501
      2 O          10.8516   -0.7194    0.0000 O.3     1  UNL1       -0.3911
      3 O           2.5576   -3.0545    0.0000 O.3     1  UNL1       -0.3912
      4 O          10.7857    3.8330    0.0000 O.3     1  UNL1       -0.3540
      5 C           7.2594   -1.0555    0.0000 C.3     1  UNL1       -0.0193
      6 C           8.1511   -0.4374    0.0000 C.3     1  UNL1       -0.0028
      7 C           6.2818   -0.5847    0.0000 C.3     1  UNL1       -0.0257
      8 C           5.3384   -1.2069    0.0000 C.3     1  UNL1       -0.0250
      9 C           5.4141   -2.3345    0.0000 C.3     1  UNL1       -0.0278
     10 C           9.8518    0.7414    0.0000 C.3     1  UNL1        0.0267
     11 C           8.9509    1.1753    0.0000 C.3     1  UNL1       -0.0086
     12 C           8.0813    0.6019    0.0000 C.2     1  UNL1       -0.0631
     13 C           7.3612   -2.1811    0.0000 C.3     1  UNL1       -0.0463
     14 C           9.0896   -0.8893    0.0000 C.3     1  UNL1       -0.0166
     15 C           6.4324   -2.8249    0.0000 C.3     1  UNL1       -0.0486
     16 C           9.9457   -0.2960    0.0000 C.3     1  UNL1        0.0643
     17 C           4.4466   -3.0052    0.0000 C.3     1  UNL1       -0.0056
     18 C           6.2091    0.4978    0.0000 C.3     1  UNL1       -0.0306
     19 C           4.2898   -0.6717    0.0000 C.3     1  UNL1       -0.0447
     20 C           8.7283    2.1503    0.0000 C.3     1  UNL1       -0.0358
     21 C           9.3518    2.9321    0.0000 C.3     1  UNL1        0.0195
     22 C           7.9576   -1.7714    0.0000 C.3     1  UNL1       -0.0585
     23 C          10.2006    1.4606    0.0000 C.3     1  UNL1       -0.0417
     24 C           7.1149    1.0951    0.0000 C.2     1  UNL1       -0.0836
     25 C           8.5554   -1.3520    0.0000 C.3     1  UNL1       -0.0552
     26 C           5.2713   -0.2091    0.0000 C.3     1  UNL1       -0.0590
     27 C           3.3860   -2.4944    0.0000 C.3     1  UNL1        0.0606
     28 C           9.9780    2.4355    0.0000 C.3     1  UNL1       -0.0423
     29 C           3.3070   -1.3198    0.0000 C.3     1  UNL1       -0.0258
     30 C          10.7528    1.1753    0.0000 C.3     1  UNL1        0.0592
     31 C          10.3518    2.9321    0.0000 C.3     1  UNL1        0.1641
     32 C           4.0162   -3.9078    0.0000 C.3     1  UNL1       -0.0572
     33 C           5.0131   -3.8292    0.0000 C.3     1  UNL1       -0.0572
     34 C           9.1293    3.9070    0.0000 C.3     1  UNL1       -0.0549
     35 C          11.7829    3.9078    0.0000 C.3     1  UNL1        0.0395
     36 H           6.9860   -0.1086    0.0000 H       1  UNL1        0.0315
     37 H           5.4809   -3.1819    0.0000 H       1  UNL1        0.0312
     38 H           8.1850    1.5441    0.0000 H       1  UNL1        0.0353
     39 H           7.6220   -2.7435    0.0000 H       1  UNL1        0.0271
     40 H           7.9600   -2.0204    0.0000 H       1  UNL1        0.0271
     41 H           8.7290   -1.3937    0.0000 H       1  UNL1        0.0299
     42 H           9.5248   -1.3310    0.0000 H       1  UNL1        0.0299
     43 H           6.0717   -3.3292    0.0000 H       1  UNL1        0.0268
     44 H           6.8675   -3.2665    0.0000 H       1  UNL1        0.0268
     45 H           9.9980   -0.9137    0.0000 H       1  UNL1        0.0600
     46 H           5.9614    1.0662    0.0000 H       1  UNL1        0.0310
     47 H           5.6067    0.3510    0.0000 H       1  UNL1        0.0310
     48 H           4.6620   -0.1759    0.0000 H       1  UNL1        0.0271
     49 H           3.8650   -0.2202    0.0000 H       1  UNL1        0.0271
     50 H           8.3418    2.6350    0.0000 H       1  UNL1        0.0278
     51 H           8.1697    1.8812    0.0000 H       1  UNL1        0.0278
     52 H           7.5138   -2.2043    0.0000 H       1  UNL1        0.0235
     53 H           8.3905   -2.2152    0.0000 H       1  UNL1        0.0235
     54 H           8.4015   -1.3384    0.0000 H       1  UNL1        0.0235
     55 H          10.6543    1.0380    0.0000 H       1  UNL1        0.0272
     56 H          10.7378    1.7701    0.0000 H       1  UNL1        0.0272
     57 H           7.0805    1.7142    0.0000 H       1  UNL1        0.0572
     58 H           7.9883   -1.6027    0.0000 H       1  UNL1        0.0238
     59 H           8.8060   -1.9191    0.0000 H       1  UNL1        0.0238
     60 H           9.1224   -1.1014    0.0000 H       1  UNL1        0.0238
     61 H           5.8899   -0.1676    0.0000 H       1  UNL1        0.0235
     62 H           5.2297    0.4095    0.0000 H       1  UNL1        0.0235
     63 H           4.6527   -0.2507    0.0000 H       1  UNL1        0.0235
     64 H           3.4311   -3.1127    0.0000 H       1  UNL1        0.0599
     65 H          10.5963    2.3897    0.0000 H       1  UNL1        0.0272
     66 H          10.2035    3.0130    0.0000 H       1  UNL1        0.0272
     67 H           3.0593   -0.7514    0.0000 H       1  UNL1        0.0290
     68 H           2.7047   -1.4666    0.0000 H       1  UNL1        0.0290
     69 H          10.8908    0.5709    0.0000 H       1  UNL1        0.0567
     70 H          11.3728    1.1753    0.0000 H       1  UNL1        0.0567
     71 H           9.8996    3.6518    0.0000 H       1  UNL1        0.0915
     72 H           3.4566   -3.6409    0.0000 H       1  UNL1        0.0236
     73 H           3.7493   -4.4674    0.0000 H       1  UNL1        0.0236
     74 H           4.5758   -4.1746    0.0000 H       1  UNL1        0.0236
     75 H           4.5022   -4.1804    0.0000 H       1  UNL1        0.0236
     76 H           5.3643   -4.3401    0.0000 H       1  UNL1        0.0236
     77 H           5.5240   -3.4780    0.0000 H       1  UNL1        0.0236
     78 H           9.7338    4.0450    0.0000 H       1  UNL1        0.0237
     79 H           8.9913    4.5115    0.0000 H       1  UNL1        0.0237
     80 H           8.5248    3.7690    0.0000 H       1  UNL1        0.0237
     81 H          10.9051   -1.3371    0.0000 H       1  UNL1        0.2098
     82 H           2.0000   -2.7834    0.0000 H       1  UNL1        0.2098
     83 H          11.8292    3.2895    0.0000 H       1  UNL1        0.0525
     84 H          12.4012    3.9541    0.0000 H       1  UNL1        0.0525
     85 H          11.7366    4.5260    0.0000 H       1  UNL1        0.0525
@<TRIPOS>BOND
     1     1    30    1
     2     1    31    1
     3    16     2    1
     4     2    81    1
     5    27     3    1
     6     3    82    1
     7     4    31    1
     8     4    35    1
     9     5     6    1
    10     5     7    1
    11     5    13    1
    12     5    22    1
    13     6    12    1
    14     6    14    1
    15     6    25    1
    16     7     8    1
    17     7    18    1
    18     7    36    1
    19     8     9    1
    20     8    19    1
    21     8    26    1
    22     9    15    1
    23     9    17    1
    24     9    37    1
    25    10    11    1
    26    10    16    1
    27    10    23    1
    28    10    30    1
    29    11    12    1
    30    11    20    1
    31    11    38    1
    32    12    24    2
    33    13    15    1
    34    13    39    1
    35    13    40    1
    36    14    16    1
    37    14    41    1
    38    14    42    1
    39    15    43    1
    40    15    44    1
    41    16    45    1
    42    17    27    1
    43    17    32    1
    44    17    33    1
    45    18    24    1
    46    18    46    1
    47    18    47    1
    48    19    29    1
    49    19    48    1
    50    19    49    1
    51    20    21    1
    52    20    50    1
    53    20    51    1
    54    21    28    1
    55    21    31    1
    56    21    34    1
    57    22    52    1
    58    22    53    1
    59    22    54    1
    60    23    28    1
    61    23    55    1
    62    23    56    1
    63    24    57    1
    64    25    58    1
    65    25    59    1
    66    25    60    1
    67    26    61    1
    68    26    62    1
    69    26    63    1
    70    27    29    1
    71    27    64    1
    72    28    65    1
    73    28    66    1
    74    29    67    1
    75    29    68    1
    76    30    69    1
    77    30    70    1
    78    31    71    1
    79    32    72    1
    80    32    73    1
    81    32    74    1
    82    33    75    1
    83    33    76    1
    84    33    77    1
    85    34    78    1
    86    34    79    1
    87    34    80    1
    88    35    83    1
    89    35    84    1
    90    35    85    1
