@<TRIPOS>MOLECULE
IMPHY001219
 40 42 0 0 0
SMALL
GASTEIGER

@<TRIPOS>ATOM
      1 O           5.5443   -1.9597    0.0000 O.3     1  UNL1       -0.4791
      2 O           6.8335    0.8065    0.0000 O.3     1  UNL1       -0.4801
      3 O           3.7320   -3.1550    0.0000 O.3     1  UNL1       -0.5033
      4 O           5.1871    1.3446    0.0000 O.2     1  UNL1       -0.2502
      5 O           9.1279   -2.8870    0.0000 O.3     1  UNL1       -0.5033
      6 O          10.1279   -1.1550    0.0000 O.3     1  UNL1       -0.5033
      7 O           2.0000    2.8450    0.0000 O.3     1  UNL1       -0.4775
      8 O           3.7320    2.8450    0.0000 O.2     1  UNL1       -0.2458
      9 C           5.5443   -0.3503    0.0000 C.3     1  UNL1        0.1261
     10 C           6.1279   -1.1550    0.0000 C.3     1  UNL1        0.1425
     11 C           4.5981   -0.6550    0.0000 C.ar    1  UNL1        0.0227
     12 C           4.5981   -1.6550    0.0000 C.ar    1  UNL1        0.1672
     13 C           7.1279   -1.1550    0.0000 C.ar    1  UNL1       -0.0026
     14 C           3.7320   -0.1550    0.0000 C.ar    1  UNL1       -0.0170
     15 C           5.8550    0.6003    0.0000 C.2     1  UNL1        0.3163
     16 C           3.7320   -2.1550    0.0000 C.ar    1  UNL1        0.1588
     17 C           2.8660   -0.6550    0.0000 C.ar    1  UNL1       -0.0506
     18 C           7.6279   -2.0210    0.0000 C.ar    1  UNL1       -0.0098
     19 C           7.6279   -0.2890    0.0000 C.ar    1  UNL1       -0.0514
     20 C           2.8660   -1.6550    0.0000 C.ar    1  UNL1       -0.0159
     21 C           3.7320    0.8450    0.0000 C.2     1  UNL1       -0.0474
     22 C           8.6279   -2.0210    0.0000 C.ar    1  UNL1        0.1586
     23 C           8.6279   -0.2890    0.0000 C.ar    1  UNL1       -0.0162
     24 C           9.1279   -1.1550    0.0000 C.ar    1  UNL1        0.1582
     25 C           2.8660    1.3450    0.0000 C.2     1  UNL1        0.0229
     26 C           2.8660    2.3450    0.0000 C.2     1  UNL1        0.3296
     27 H           5.1068    0.0891    0.0000 H       1  UNL1        0.0504
     28 H           6.4096   -1.7073    0.0000 H       1  UNL1        0.0796
     29 H           2.3291   -0.3450    0.0000 H       1  UNL1        0.0625
     30 H           7.3179   -2.5580    0.0000 H       1  UNL1        0.0659
     31 H           7.3179    0.2480    0.0000 H       1  UNL1        0.0623
     32 H           2.3291   -1.9650    0.0000 H       1  UNL1        0.0655
     33 H           4.2690    1.1550    0.0000 H       1  UNL1        0.0626
     34 H           8.9379    0.2480    0.0000 H       1  UNL1        0.0655
     35 H           7.0261    1.3958    0.0000 H       1  UNL1        0.2951
     36 H           3.1951   -3.4650    0.0000 H       1  UNL1        0.2923
     37 H           2.3291    1.0350    0.0000 H       1  UNL1        0.0689
     38 H           8.8179   -3.4240    0.0000 H       1  UNL1        0.2923
     39 H          10.4379   -0.6181    0.0000 H       1  UNL1        0.2923
     40 H           2.0000    3.4650    0.0000 H       1  UNL1        0.2954
@<TRIPOS>BOND
     1     1    10    1
     2     1    12    1
     3     2    15    1
     4     2    35    1
     5     3    16    1
     6     3    36    1
     7     4    15    2
     8     5    22    1
     9     5    38    1
    10     6    24    1
    11     6    39    1
    12     7    26    1
    13     7    40    1
    14     8    26    2
    15     9    10    1
    16     9    11    1
    17     9    15    1
    18     9    27    1
    19    10    13    1
    20    10    28    1
    21    11    12   ar
    22    11    14   ar
    23    12    16   ar
    24    13    18   ar
    25    13    19   ar
    26    14    17   ar
    27    14    21    1
    28    16    20   ar
    29    17    20   ar
    30    17    29    1
    31    18    22   ar
    32    18    30    1
    33    19    23   ar
    34    19    31    1
    35    20    32    1
    36    21    25    2
    37    21    33    1
    38    22    24   ar
    39    23    24   ar
    40    23    34    1
    41    25    26    1
    42    25    37    1
