@<TRIPOS>MOLECULE
IMPHY005215
 42 44 0 0 0
SMALL
GASTEIGER

@<TRIPOS>ATOM
      1 CL          3.1453    0.0000    0.0000 Cl      1  UNL1       -0.1454
      2 O           2.3199    7.1914    0.0000 O.3     2  UNL2       -0.4908
      3 O           0.5381    6.1809    0.0000 O.3     2  UNL2       -0.5033
      4 N           5.7925    4.1599    0.0000 N.3     2  UNL2       -0.2978
      5 C           4.9343    4.6568    0.0000 C.3     2  UNL2        0.0401
      6 C           4.9343    5.6568    0.0000 C.ar    2  UNL2       -0.0189
      7 C           4.0682    4.1568    0.0000 C.3     2  UNL2       -0.0072
      8 C           5.8443    6.1636    0.0000 C.ar    2  UNL2       -0.0409
      9 C           6.6580    4.6440    0.0000 C.3     2  UNL2        0.0032
     10 C           6.6836    5.6354    0.0000 C.3     2  UNL2       -0.0145
     11 C           4.0682    6.1568    0.0000 C.ar    2  UNL2       -0.0091
     12 C           3.2022    4.6568    0.0000 C.ar    2  UNL2       -0.0341
     13 C           3.2022    5.6568    0.0000 C.ar    2  UNL2        0.0310
     14 C           5.7851    3.1599    0.0000 C.3     2  UNL2       -0.0122
     15 C           5.8523    7.2052    0.0000 C.ar    2  UNL2       -0.0582
     16 C           4.0522    7.1983    0.0000 C.ar    2  UNL2       -0.0536
     17 C           2.3083    6.1915    0.0000 C.ar    2  UNL2        0.1692
     18 C           2.3083    4.1221    0.0000 C.ar    2  UNL2       -0.0543
     19 C           4.9502    7.7261    0.0000 C.ar    2  UNL2       -0.0609
     20 C           1.4022    5.6776    0.0000 C.ar    2  UNL2        0.1591
     21 C           1.4022    4.6360    0.0000 C.ar    2  UNL2       -0.0162
     22 C           1.4597    7.7014    0.0000 C.3     2  UNL2        0.0790
     23 H           4.9337    3.8068    0.0000 H       2  UNL2        0.0515
     24 H           3.6697    3.6818    0.0000 H       2  UNL2        0.0332
     25 H           4.4668    3.6818    0.0000 H       2  UNL2        0.0332
     26 H           6.8597    4.0578    0.0000 H       2  UNL2        0.0430
     27 H           7.2708    4.7384    0.0000 H       2  UNL2        0.0430
     28 H           7.2907    5.5095    0.0000 H       2  UNL2        0.0326
     29 H           6.9154    6.2105    0.0000 H       2  UNL2        0.0326
     30 H           5.1651    3.1645    0.0000 H       2  UNL2        0.0391
     31 H           5.7805    2.5399    0.0000 H       2  UNL2        0.0391
     32 H           6.4051    3.1553    0.0000 H       2  UNL2        0.0391
     33 H           6.3904    7.5132    0.0000 H       2  UNL2        0.0620
     34 H           3.5117    7.5021    0.0000 H       2  UNL2        0.0624
     35 H           2.3154    3.5022    0.0000 H       2  UNL2        0.0622
     36 H           4.9478    8.3460    0.0000 H       2  UNL2        0.0618
     37 H           0.8665    4.3239    0.0000 H       2  UNL2        0.0655
     38 H           0.0000    5.8730    0.0000 H       2  UNL2        0.2923
     39 H           1.7758    8.2347    0.0000 H       2  UNL2        0.0660
     40 H           0.9263    8.0176    0.0000 H       2  UNL2        0.0660
     41 H           1.1435    7.1680    0.0000 H       2  UNL2        0.0660
     42 H           4.1453    0.0000    0.0000 H       1  UNL1        0.1454
@<TRIPOS>BOND
     1     1    42    1
     2     2    17    1
     3     2    22    1
     4     3    20    1
     5     3    38    1
     6     4     5    1
     7     4     9    1
     8     4    14    1
     9     5     6    1
    10     5     7    1
    11     5    23    1
    12     6     8   ar
    13     6    11   ar
    14     7    12    1
    15     7    24    1
    16     7    25    1
    17     8    10    1
    18     8    15   ar
    19     9    10    1
    20     9    26    1
    21     9    27    1
    22    10    28    1
    23    10    29    1
    24    11    13    1
    25    11    16   ar
    26    12    13   ar
    27    12    18   ar
    28    13    17   ar
    29    14    30    1
    30    14    31    1
    31    14    32    1
    32    15    19   ar
    33    15    33    1
    34    16    19   ar
    35    16    34    1
    36    17    20   ar
    37    18    21   ar
    38    18    35    1
    39    19    36    1
    40    20    21   ar
    41    21    37    1
    42    22    39    1
    43    22    40    1
    44    22    41    1
