@<TRIPOS>MOLECULE
IMPHY016444
 50 49 0 0 0
SMALL
GASTEIGER

@<TRIPOS>ATOM
      1 F           3.3660   -1.9330    0.0000 F       1  UNL1       -0.1606
      2 F           2.0000   -1.5670    0.0000 F       1  UNL1       -0.1606
      3 F           2.3660   -0.2010    0.0000 F       1  UNL1       -0.1606
      4 O           4.5981   -1.0670    0.0000 O.3     1  UNL1       -0.4551
      5 O           3.7320    0.4330    0.0000 O.2     1  UNL1       -0.2406
      6 C           7.1962   -0.5670    0.0000 C.3     1  UNL1       -0.0497
      7 C           8.0622   -1.0670    0.0000 C.3     1  UNL1       -0.0529
      8 C           6.3301   -1.0670    0.0000 C.3     1  UNL1       -0.0157
      9 C           8.9282   -0.5670    0.0000 C.3     1  UNL1       -0.0531
     10 C           5.4641   -0.5670    0.0000 C.3     1  UNL1        0.1034
     11 C           9.7942   -1.0670    0.0000 C.3     1  UNL1       -0.0531
     12 C          10.6603   -0.5670    0.0000 C.3     1  UNL1       -0.0531
     13 C           5.4641    0.4330    0.0000 C.3     1  UNL1       -0.0159
     14 C          11.5263   -1.0670    0.0000 C.3     1  UNL1       -0.0531
     15 C          12.3923   -0.5670    0.0000 C.3     1  UNL1       -0.0533
     16 C           6.3301    0.9330    0.0000 C.3     1  UNL1       -0.0526
     17 C          13.2583   -1.0670    0.0000 C.3     1  UNL1       -0.0559
     18 C           6.3301    1.9330    0.0000 C.3     1  UNL1       -0.0652
     19 C          14.1244   -0.5670    0.0000 C.3     1  UNL1       -0.0653
     20 C           3.7320   -0.5670    0.0000 C.2     1  UNL1        0.4133
     21 C           2.8660   -1.0670    0.0000 C.3     1  UNL1        0.4911
     22 H           7.5947   -0.0920    0.0000 H       1  UNL1        0.0266
     23 H           6.7976   -0.0920    0.0000 H       1  UNL1        0.0266
     24 H           7.6636   -1.5419    0.0000 H       1  UNL1        0.0265
     25 H           8.4607   -1.5419    0.0000 H       1  UNL1        0.0265
     26 H           5.9316   -1.5419    0.0000 H       1  UNL1        0.0301
     27 H           6.7287   -1.5419    0.0000 H       1  UNL1        0.0301
     28 H           9.3267   -0.0920    0.0000 H       1  UNL1        0.0265
     29 H           8.5297   -0.0920    0.0000 H       1  UNL1        0.0265
     30 H           5.4641   -1.1870    0.0000 H       1  UNL1        0.0734
     31 H           9.3957   -1.5419    0.0000 H       1  UNL1        0.0265
     32 H          10.1928   -1.5419    0.0000 H       1  UNL1        0.0265
     33 H          11.0588   -0.0920    0.0000 H       1  UNL1        0.0265
     34 H          10.2617   -0.0920    0.0000 H       1  UNL1        0.0265
     35 H           5.2520    1.0156    0.0000 H       1  UNL1        0.0301
     36 H           4.8535    0.3254    0.0000 H       1  UNL1        0.0301
     37 H          11.1278   -1.5419    0.0000 H       1  UNL1        0.0265
     38 H          11.9248   -1.5419    0.0000 H       1  UNL1        0.0265
     39 H          12.7908   -0.0920    0.0000 H       1  UNL1        0.0265
     40 H          11.9938   -0.0920    0.0000 H       1  UNL1        0.0265
     41 H           6.5422    0.3504    0.0000 H       1  UNL1        0.0264
     42 H           6.9407    1.0407    0.0000 H       1  UNL1        0.0264
     43 H          12.8598   -1.5419    0.0000 H       1  UNL1        0.0263
     44 H          13.6569   -1.5419    0.0000 H       1  UNL1        0.0263
     45 H           6.9501    1.9330    0.0000 H       1  UNL1        0.0230
     46 H           6.3301    2.5530    0.0000 H       1  UNL1        0.0230
     47 H           5.7101    1.9330    0.0000 H       1  UNL1        0.0230
     48 H          14.4344   -1.1039    0.0000 H       1  UNL1        0.0230
     49 H          14.6613   -0.2570    0.0000 H       1  UNL1        0.0230
     50 H          13.8144   -0.0301    0.0000 H       1  UNL1        0.0230
@<TRIPOS>BOND
     1     1    21    1
     2     2    21    1
     3     3    21    1
     4     4    10    1
     5     4    20    1
     6     5    20    2
     7     6     7    1
     8     6     8    1
     9     6    22    1
    10     6    23    1
    11     7     9    1
    12     7    24    1
    13     7    25    1
    14     8    10    1
    15     8    26    1
    16     8    27    1
    17     9    11    1
    18     9    28    1
    19     9    29    1
    20    10    13    1
    21    10    30    1
    22    11    12    1
    23    11    31    1
    24    11    32    1
    25    12    14    1
    26    12    33    1
    27    12    34    1
    28    13    16    1
    29    13    35    1
    30    13    36    1
    31    14    15    1
    32    14    37    1
    33    14    38    1
    34    15    17    1
    35    15    39    1
    36    15    40    1
    37    16    18    1
    38    16    41    1
    39    16    42    1
    40    17    19    1
    41    17    43    1
    42    17    44    1
    43    18    45    1
    44    18    46    1
    45    18    47    1
    46    19    48    1
    47    19    49    1
    48    19    50    1
    49    20    21    1
