@<TRIPOS>MOLECULE
IMPHY001923
 20 21 0 0 0
SMALL
GASTEIGER

@<TRIPOS>ATOM
      1 O           4.6660   -1.4827    0.0000 O.2     1  UNL1       -0.4221
      2 O           6.3981   -1.4827    0.0000 O.2     1  UNL1       -0.2452
      3 C           3.8000    0.0173    0.0000 C.ar    1  UNL1        0.0205
      4 C           4.6660    0.5173    0.0000 C.ar    1  UNL1       -0.0330
      5 C           3.8000   -0.9827    0.0000 C.ar    1  UNL1        0.1393
      6 C           2.9061    0.5520    0.0000 C.ar    1  UNL1       -0.0508
      7 C           5.5321    0.0173    0.0000 C.ar    1  UNL1        0.0265
      8 C           2.9061   -1.5173    0.0000 C.ar    1  UNL1       -0.0186
      9 C           4.6660    1.5173    0.0000 C.3     1  UNL1       -0.0388
     10 C           2.0000    0.0381    0.0000 C.ar    1  UNL1       -0.0610
     11 C           2.0000   -1.0035    0.0000 C.ar    1  UNL1       -0.0582
     12 C           5.5321   -0.9827    0.0000 C.ar    1  UNL1        0.3375
     13 H           2.9132    1.1720    0.0000 H       1  UNL1        0.0625
     14 H           6.0690    0.3273    0.0000 H       1  UNL1        0.0692
     15 H           2.9132   -2.1373    0.0000 H       1  UNL1        0.0654
     16 H           5.2860    1.5173    0.0000 H       1  UNL1        0.0278
     17 H           4.6660    2.1373    0.0000 H       1  UNL1        0.0278
     18 H           4.0460    1.5173    0.0000 H       1  UNL1        0.0278
     19 H           1.4643    0.3502    0.0000 H       1  UNL1        0.0618
     20 H           1.4643   -1.3156    0.0000 H       1  UNL1        0.0619
@<TRIPOS>BOND
     1     1     5   ar
     2     1    12   ar
     3     2    12    2
     4     3     4   ar
     5     3     5   ar
     6     3     6   ar
     7     4     7   ar
     8     4     9    1
     9     5     8   ar
    10     6    10   ar
    11     6    13    1
    12     7    12   ar
    13     7    14    1
    14     8    11   ar
    15     8    15    1
    16     9    16    1
    17     9    17    1
    18     9    18    1
    19    10    11   ar
    20    10    19    1
    21    11    20    1
