@<TRIPOS>MOLECULE
IMPHY017727
 27 27 0 0 0
SMALL
GASTEIGER

@<TRIPOS>ATOM
      1 O           2.0000    2.0000    0.0000 O.3     1  UNL1       -0.3504
      2 O           3.7320    2.0000    0.0000 O.3     1  UNL1       -0.3504
      3 O           2.8660   -2.5000    0.0000 O.3     1  UNL1       -0.4951
      4 C           2.8660    0.5000    0.0000 C.ar    1  UNL1        0.0080
      5 C           2.8660    1.5000    0.0000 C.3     1  UNL1        0.1847
      6 C           2.0000    0.0000    0.0000 C.ar    1  UNL1       -0.0503
      7 C           3.7320   -0.0000    0.0000 C.ar    1  UNL1       -0.0503
      8 C           2.8660   -1.5000    0.0000 C.ar    1  UNL1        0.1201
      9 C           2.0000   -1.0000    0.0000 C.ar    1  UNL1       -0.0195
     10 C           3.7320   -1.0000    0.0000 C.ar    1  UNL1       -0.0195
     11 C           2.0000    3.0000    0.0000 C.3     1  UNL1        0.0398
     12 C           3.7320    3.0000    0.0000 C.3     1  UNL1        0.0398
     13 C           2.0000   -3.0000    0.0000 C.3     1  UNL1        0.0788
     14 H           2.8660    2.1200    0.0000 H       1  UNL1        0.0964
     15 H           1.4631    0.3100    0.0000 H       1  UNL1        0.0623
     16 H           4.2690    0.3100    0.0000 H       1  UNL1        0.0623
     17 H           1.4631   -1.3100    0.0000 H       1  UNL1        0.0654
     18 H           4.2690   -1.3100    0.0000 H       1  UNL1        0.0654
     19 H           2.6200    3.0000    0.0000 H       1  UNL1        0.0525
     20 H           2.0000    3.6200    0.0000 H       1  UNL1        0.0525
     21 H           1.3800    3.0000    0.0000 H       1  UNL1        0.0525
     22 H           4.3520    3.0000    0.0000 H       1  UNL1        0.0525
     23 H           3.7320    3.6200    0.0000 H       1  UNL1        0.0525
     24 H           3.1120    3.0000    0.0000 H       1  UNL1        0.0525
     25 H           1.6900   -2.4631    0.0000 H       1  UNL1        0.0660
     26 H           1.4631   -3.3100    0.0000 H       1  UNL1        0.0660
     27 H           2.3100   -3.5369    0.0000 H       1  UNL1        0.0660
@<TRIPOS>BOND
     1     1     5    1
     2     1    11    1
     3     2     5    1
     4     2    12    1
     5     3     8    1
     6     3    13    1
     7     4     5    1
     8     4     6   ar
     9     4     7   ar
    10     5    14    1
    11     6     9   ar
    12     6    15    1
    13     7    10   ar
    14     7    16    1
    15     8     9   ar
    16     8    10   ar
    17     9    17    1
    18    10    18    1
    19    11    19    1
    20    11    20    1
    21    11    21    1
    22    12    22    1
    23    12    23    1
    24    12    24    1
    25    13    25    1
    26    13    26    1
    27    13    27    1
