@<TRIPOS>MOLECULE
IMPHY002184
 51 53 0 0 0
SMALL
GASTEIGER

@<TRIPOS>ATOM
      1 O           2.5381   -2.0095    0.0000 O.3     1  UNL1       -0.3912
      2 O           7.8003   -1.9854    0.0000 O.2     1  UNL1       -0.2920
      3 O           6.9464    2.5839    0.0000 O.3     1  UNL1       -0.5065
      4 C           5.2022   -1.4854    0.0000 C.3     1  UNL1       -0.0171
      5 C           5.2022   -0.4854    0.0000 C.3     1  UNL1       -0.0024
      6 C           4.3083   -2.0200    0.0000 C.3     1  UNL1       -0.0049
      7 C           4.3083    0.0493    0.0000 C.3     1  UNL1       -0.0410
      8 C           3.4022   -1.5062    0.0000 C.3     1  UNL1        0.0607
      9 C           3.4022   -0.4646    0.0000 C.3     1  UNL1       -0.0255
     10 C           6.0682   -1.9854    0.0000 C.3     1  UNL1        0.0147
     11 C           6.0682    0.0146    0.0000 C.ar    1  UNL1       -0.0272
     12 C           5.2022    0.5146    0.0000 C.3     1  UNL1       -0.0552
     13 C           3.8183   -2.8918    0.0000 C.3     1  UNL1       -0.0572
     14 C           4.8183   -2.8802    0.0000 C.3     1  UNL1       -0.0572
     15 C           6.9343   -0.4854    0.0000 C.ar    1  UNL1        0.0216
     16 C           6.9343   -1.4854    0.0000 C.2     1  UNL1        0.1638
     17 C           6.0522    1.0561    0.0000 C.ar    1  UNL1       -0.0155
     18 C           7.8443    0.0215    0.0000 C.ar    1  UNL1       -0.0441
     19 C           6.9502    1.5839    0.0000 C.ar    1  UNL1        0.1206
     20 C           7.8523    1.0631    0.0000 C.ar    1  UNL1       -0.0027
     21 C           8.7202    1.5597    0.0000 C.3     1  UNL1       -0.0181
     22 C           9.5844    1.0564    0.0000 C.3     1  UNL1       -0.0585
     23 C           8.7241    2.5597    0.0000 C.3     1  UNL1       -0.0585
     24 H           5.2088   -2.3354    0.0000 H       1  UNL1        0.0319
     25 H           4.7129    0.5191    0.0000 H       1  UNL1        0.0275
     26 H           3.9147    0.5283    0.0000 H       1  UNL1        0.0275
     27 H           2.8647   -1.1972    0.0000 H       1  UNL1        0.0599
     28 H           3.1932    0.1191    0.0000 H       1  UNL1        0.0290
     29 H           2.7914   -0.5707    0.0000 H       1  UNL1        0.0290
     30 H           5.6697   -2.4603    0.0000 H       1  UNL1        0.0348
     31 H           6.4668   -2.4603    0.0000 H       1  UNL1        0.0348
     32 H           5.8222    0.5146    0.0000 H       1  UNL1        0.0238
     33 H           5.2022    1.1346    0.0000 H       1  UNL1        0.0238
     34 H           4.5822    0.5146    0.0000 H       1  UNL1        0.0238
     35 H           3.2778   -2.5880    0.0000 H       1  UNL1        0.0236
     36 H           4.2850   -3.1964    0.0000 H       1  UNL1        0.0236
     37 H           5.1344   -3.4136    0.0000 H       1  UNL1        0.0236
     38 H           3.5146   -3.4323    0.0000 H       1  UNL1        0.0236
     39 H           4.3588   -3.1956    0.0000 H       1  UNL1        0.0236
     40 H           5.3516   -2.5640    0.0000 H       1  UNL1        0.0236
     41 H           5.5117    1.3599    0.0000 H       1  UNL1        0.0657
     42 H           2.0000   -1.7016    0.0000 H       1  UNL1        0.2098
     43 H           8.3776   -0.2947    0.0000 H       1  UNL1        0.0629
     44 H           8.1845    1.8718    0.0000 H       1  UNL1        0.0345
     45 H           6.4082    2.8918    0.0000 H       1  UNL1        0.2921
     46 H           9.3441    2.5573    0.0000 H       1  UNL1        0.0235
     47 H           8.7265    3.1797    0.0000 H       1  UNL1        0.0235
     48 H           9.2723    0.5206    0.0000 H       1  UNL1        0.0235
     49 H           8.1041    2.5621    0.0000 H       1  UNL1        0.0235
     50 H          10.1201    0.7443    0.0000 H       1  UNL1        0.0235
     51 H           9.8964    1.5921    0.0000 H       1  UNL1        0.0235
@<TRIPOS>BOND
     1     8     1    1
     2     1    42    1
     3     2    16    2
     4     3    19    1
     5     3    45    1
     6     4     5    1
     7     4     6    1
     8     4    10    1
     9     4    24    1
    10     5     7    1
    11     5    11    1
    12     5    12    1
    13     6     8    1
    14     6    13    1
    15     6    14    1
    16     7     9    1
    17     7    25    1
    18     7    26    1
    19     8     9    1
    20     8    27    1
    21     9    28    1
    22     9    29    1
    23    10    16    1
    24    10    30    1
    25    10    31    1
    26    11    15   ar
    27    11    17   ar
    28    12    32    1
    29    12    33    1
    30    12    34    1
    31    13    35    1
    32    13    38    1
    33    13    39    1
    34    14    36    1
    35    14    37    1
    36    14    40    1
    37    15    16    1
    38    15    18   ar
    39    17    19   ar
    40    17    41    1
    41    18    20   ar
    42    18    43    1
    43    19    20   ar
    44    20    21    1
    45    21    22    1
    46    21    23    1
    47    21    44    1
    48    22    48    1
    49    22    50    1
    50    22    51    1
    51    23    46    1
    52    23    47    1
    53    23    49    1
