@<TRIPOS>MOLECULE
IMPHY008179
 38 39 0 0 0
SMALL
GASTEIGER

@<TRIPOS>ATOM
      1 O           2.8660   -0.8100    0.0000 O.3     1  UNL1       -0.4942
      2 O           4.5981   -3.8100    0.0000 O.3     1  UNL1       -0.4949
      3 O           6.3301   -0.8100    0.0000 O.3     1  UNL1       -0.5058
      4 O           3.7320    0.6900    0.0000 O.2     1  UNL1       -0.2870
      5 O           8.9282    3.6900    0.0000 O.3     1  UNL1       -0.5068
      6 C           4.5981   -0.8100    0.0000 C.ar    1  UNL1        0.1047
      7 C           3.7320   -1.3100    0.0000 C.ar    1  UNL1        0.1379
      8 C           5.4641   -1.3100    0.0000 C.ar    1  UNL1        0.1346
      9 C           3.7320   -2.3100    0.0000 C.ar    1  UNL1        0.0227
     10 C           4.5981   -2.8100    0.0000 C.ar    1  UNL1        0.1271
     11 C           5.4641   -2.3100    0.0000 C.ar    1  UNL1        0.0225
     12 C           4.5981    0.1900    0.0000 C.2     1  UNL1        0.1931
     13 C           6.3301    2.1900    0.0000 C.ar    1  UNL1       -0.0247
     14 C           5.4641    0.6900    0.0000 C.2     1  UNL1       -0.0135
     15 C           5.4641    1.6900    0.0000 C.2     1  UNL1       -0.0510
     16 C           7.1962    1.6900    0.0000 C.ar    1  UNL1       -0.0511
     17 C           6.3301    3.1900    0.0000 C.ar    1  UNL1       -0.0511
     18 C           8.0622    2.1900    0.0000 C.ar    1  UNL1       -0.0196
     19 C           7.1962    3.6900    0.0000 C.ar    1  UNL1       -0.0196
     20 C           8.0622    3.1900    0.0000 C.ar    1  UNL1        0.1169
     21 C           2.0000   -1.3100    0.0000 C.3     1  UNL1        0.0788
     22 C           5.4641   -4.3100    0.0000 C.3     1  UNL1        0.0788
     23 H           3.1951   -2.6200    0.0000 H       1  UNL1        0.0691
     24 H           6.0010   -2.6200    0.0000 H       1  UNL1        0.0691
     25 H           6.0010    0.3800    0.0000 H       1  UNL1        0.0656
     26 H           4.9272    2.0000    0.0000 H       1  UNL1        0.0625
     27 H           7.1962    1.0700    0.0000 H       1  UNL1        0.0625
     28 H           5.7932    3.5000    0.0000 H       1  UNL1        0.0625
     29 H           8.5991    1.8800    0.0000 H       1  UNL1        0.0654
     30 H           7.1962    4.3100    0.0000 H       1  UNL1        0.0654
     31 H           6.8671   -1.1200    0.0000 H       1  UNL1        0.2922
     32 H           1.6900   -0.7731    0.0000 H       1  UNL1        0.0660
     33 H           1.4631   -1.6200    0.0000 H       1  UNL1        0.0660
     34 H           2.3100   -1.8469    0.0000 H       1  UNL1        0.0660
     35 H           5.1541   -4.8469    0.0000 H       1  UNL1        0.0660
     36 H           6.0010   -4.6200    0.0000 H       1  UNL1        0.0660
     37 H           5.7741   -3.7731    0.0000 H       1  UNL1        0.0660
     38 H           8.9282    4.3100    0.0000 H       1  UNL1        0.2921
@<TRIPOS>BOND
     1     1     7    1
     2     1    21    1
     3     2    10    1
     4     2    22    1
     5     3     8    1
     6     3    31    1
     7     4    12    2
     8     5    20    1
     9     5    38    1
    10     6     7   ar
    11     6     8   ar
    12     6    12    1
    13     7     9   ar
    14     8    11   ar
    15     9    10   ar
    16     9    23    1
    17    10    11   ar
    18    11    24    1
    19    12    14    1
    20    13    15    1
    21    13    16   ar
    22    13    17   ar
    23    14    15    2
    24    14    25    1
    25    15    26    1
    26    16    18   ar
    27    16    27    1
    28    17    19   ar
    29    17    28    1
    30    18    20   ar
    31    18    29    1
    32    19    20   ar
    33    19    30    1
    34    21    32    1
    35    21    33    1
    36    21    34    1
    37    22    35    1
    38    22    36    1
    39    22    37    1
