@<TRIPOS>MOLECULE
IMPHY002310
 108 113 0 0 0
SMALL
GASTEIGER

@<TRIPOS>ATOM
      1 O          10.8828   -3.5197    0.0000 O.3     1  UNL1       -0.4606
      2 O           7.3114   -0.4312    0.0000 O.3     1  UNL1       -0.4608
      3 O           5.4679   -3.5406    0.0000 O.3     1  UNL1       -0.4572
      4 O          11.7607    2.4618    0.0000 O.3     1  UNL1       -0.3709
      5 O          14.3856    2.1300    0.0000 O.3     1  UNL1       -0.3891
      6 O          10.0342   -5.0296    0.0000 O.2     1  UNL1       -0.2512
      7 O           5.5797   -0.3978    0.0000 O.2     1  UNL1       -0.2512
      8 O           4.6077   -2.0372    0.0000 O.2     1  UNL1       -0.2450
      9 O          13.3605    4.5691    0.0000 O.3     1  UNL1       -0.3865
     10 C           8.2190   -1.9951    0.0000 C.3     1  UNL1        0.0124
     11 C           9.1290   -1.4882    0.0000 C.3     1  UNL1       -0.0195
     12 C           9.9950   -1.9882    0.0000 C.3     1  UNL1        0.0298
     13 C           8.2109   -3.0367    0.0000 C.3     1  UNL1       -0.0201
     14 C          10.8610   -0.4882    0.0000 C.3     1  UNL1       -0.0070
     15 C          10.0110   -3.0298    0.0000 C.3     1  UNL1        0.1126
     16 C          10.8610   -1.4882    0.0000 C.2     1  UNL1       -0.0576
     17 C           7.2755   -3.5864    0.0000 C.3     1  UNL1        0.0059
     18 C           9.1130   -3.5575    0.0000 C.3     1  UNL1       -0.0108
     19 C           9.1290   -0.4882    0.0000 C.3     1  UNL1       -0.0479
     20 C           7.2921   -1.4310    0.0000 C.3     1  UNL1        0.1123
     21 C           9.9950    0.0118    0.0000 C.3     1  UNL1       -0.0433
     22 C          11.8072   -0.1835    0.0000 C.3     1  UNL1       -0.0235
     23 C           6.3359   -3.0439    0.0000 C.3     1  UNL1        0.1121
     24 C           6.3442   -1.9590    0.0000 C.3     1  UNL1        0.0226
     25 C           8.2267   -0.9951    0.0000 C.3     1  UNL1       -0.0556
     26 C          10.8610   -2.4882    0.0000 C.3     1  UNL1       -0.0522
     27 C          12.3908   -0.9882    0.0000 C.3     1  UNL1       -0.0305
     28 C          11.8072   -1.7930    0.0000 C.2     1  UNL1       -0.0833
     29 C          12.1179    0.7670    0.0000 C.3     1  UNL1       -0.0112
     30 C          10.8610    0.5118    0.0000 C.3     1  UNL1       -0.0555
     31 C           6.7788   -4.4544    0.0000 C.3     1  UNL1       -0.0562
     32 C           7.7788   -4.4505    0.0000 C.3     1  UNL1       -0.0562
     33 C          13.0964    0.9732    0.0000 C.3     1  UNL1       -0.0191
     34 C          11.4501    1.5113    0.0000 C.3     1  UNL1        0.0514
     35 C          13.4071    1.9237    0.0000 C.3     1  UNL1        0.0843
     36 C          12.7392    2.6680    0.0000 C.3     1  UNL1        0.1125
     37 C          10.8944   -4.5196    0.0000 C.2     1  UNL1        0.3042
     38 C           6.4552    0.0854    0.0000 C.2     1  UNL1        0.3042
     39 C           4.6038   -3.0372    0.0000 C.2     1  UNL1        0.3395
     40 C          13.0499    3.6186    0.0000 C.3     1  UNL1        0.0889
     41 C          11.7661   -5.0096    0.0000 C.3     1  UNL1        0.0332
     42 C           6.4744    1.0852    0.0000 C.3     1  UNL1        0.0332
     43 C           3.7359   -3.5339    0.0000 C.ar    1  UNL1        0.0590
     44 C          12.0994    3.9292    0.0000 C.3     1  UNL1       -0.0338
     45 C          14.0004    3.3079    0.0000 C.3     1  UNL1       -0.0338
     46 C           2.8718   -3.0306    0.0000 C.ar    1  UNL1       -0.0478
     47 C           3.7320   -4.5339    0.0000 C.ar    1  UNL1       -0.0478
     48 C           2.0038   -3.5272    0.0000 C.ar    1  UNL1       -0.0610
     49 C           2.8641   -5.0306    0.0000 C.ar    1  UNL1       -0.0610
     50 C           2.0000   -4.5272    0.0000 C.ar    1  UNL1       -0.0617
     51 H           9.8651   -1.0632    0.0000 H       1  UNL1        0.0317
     52 H           8.2142   -3.8867    0.0000 H       1  UNL1        0.0315
     53 H          10.0170   -3.6497    0.0000 H       1  UNL1        0.0743
     54 H           8.7157   -4.0335    0.0000 H       1  UNL1        0.0304
     55 H           9.5140   -4.0304    0.0000 H       1  UNL1        0.0304
     56 H           8.9169    0.0944    0.0000 H       1  UNL1        0.0269
     57 H           8.5184   -0.5959    0.0000 H       1  UNL1        0.0269
     58 H           7.8355   -1.1325    0.0000 H       1  UNL1        0.0741
     59 H          10.3935    0.4867    0.0000 H       1  UNL1        0.0274
     60 H           9.5965    0.4867    0.0000 H       1  UNL1        0.0274
     61 H          12.6469   -0.0516    0.0000 H       1  UNL1        0.0315
     62 H           6.3347   -3.6639    0.0000 H       1  UNL1        0.0740
     63 H           6.1397   -1.3737    0.0000 H       1  UNL1        0.0337
     64 H           5.7326   -2.0603    0.0000 H       1  UNL1        0.0337
     65 H           8.8466   -0.9999    0.0000 H       1  UNL1        0.0236
     66 H           8.2314   -0.3751    0.0000 H       1  UNL1        0.0236
     67 H           7.6067   -0.9903    0.0000 H       1  UNL1        0.0236
     68 H          10.5510   -3.0252    0.0000 H       1  UNL1        0.0239
     69 H          11.3980   -2.7982    0.0000 H       1  UNL1        0.0239
     70 H          11.1710   -1.9513    0.0000 H       1  UNL1        0.0239
     71 H          12.8517   -1.4030    0.0000 H       1  UNL1        0.0310
     72 H          12.8517   -0.5735    0.0000 H       1  UNL1        0.0310
     73 H          11.9998   -2.3823    0.0000 H       1  UNL1        0.0572
     74 H          11.2862    0.5917    0.0000 H       1  UNL1        0.0327
     75 H          11.4810    0.5118    0.0000 H       1  UNL1        0.0238
     76 H          10.8610    1.1318    0.0000 H       1  UNL1        0.0238
     77 H          10.2410    0.5118    0.0000 H       1  UNL1        0.0238
     78 H           6.2407   -4.1464    0.0000 H       1  UNL1        0.0236
     79 H           6.4709   -4.9925    0.0000 H       1  UNL1        0.0236
     80 H           7.3170   -4.7623    0.0000 H       1  UNL1        0.0236
     81 H           7.2431   -4.7626    0.0000 H       1  UNL1        0.0236
     82 H           8.0909   -4.9862    0.0000 H       1  UNL1        0.0236
     83 H           8.3146   -4.1384    0.0000 H       1  UNL1        0.0236
     84 H          13.1170    0.3536    0.0000 H       1  UNL1        0.0294
     85 H          13.7102    0.8859    0.0000 H       1  UNL1        0.0294
     86 H          10.9031    1.8033    0.0000 H       1  UNL1        0.0563
     87 H          11.0675    1.0234    0.0000 H       1  UNL1        0.0563
     88 H          13.8211    1.4623    0.0000 H       1  UNL1        0.0620
     89 H          12.1716    3.3007    0.0000 H       1  UNL1        0.0650
     90 H          11.4623   -5.5501    0.0000 H       1  UNL1        0.0342
     91 H          12.3066   -5.3134    0.0000 H       1  UNL1        0.0342
     92 H          12.0699   -4.4691    0.0000 H       1  UNL1        0.0342
     93 H           7.0943    1.0733    0.0000 H       1  UNL1        0.0342
     94 H           6.4864    1.7051    0.0000 H       1  UNL1        0.0342
     95 H           5.8546    1.0972    0.0000 H       1  UNL1        0.0342
     96 H          14.7996    1.6685    0.0000 H       1  UNL1        0.2099
     97 H          12.2920    4.5186    0.0000 H       1  UNL1        0.0258
     98 H          11.5100    4.1218    0.0000 H       1  UNL1        0.0258
     99 H          11.9068    3.3399    0.0000 H       1  UNL1        0.0258
    100 H          13.8078    2.7186    0.0000 H       1  UNL1        0.0258
    101 H          14.5897    3.1153    0.0000 H       1  UNL1        0.0258
    102 H          14.1930    3.8972    0.0000 H       1  UNL1        0.0258
    103 H          12.9465    5.0306    0.0000 H       1  UNL1        0.2102
    104 H           2.8742   -2.4106    0.0000 H       1  UNL1        0.0626
    105 H           4.2678   -4.8460    0.0000 H       1  UNL1        0.0626
    106 H           1.4681   -3.2152    0.0000 H       1  UNL1        0.0618
    107 H           2.8617   -5.6506    0.0000 H       1  UNL1        0.0618
    108 H           1.4619   -4.8351    0.0000 H       1  UNL1        0.0618
@<TRIPOS>BOND
     1    15     1    1
     2     1    37    1
     3    20     2    1
     4     2    38    1
     5    23     3    1
     6     3    39    1
     7     4    34    1
     8     4    36    1
     9    35     5    1
    10     5    96    1
    11     6    37    2
    12     7    38    2
    13     8    39    2
    14     9    40    1
    15     9   103    1
    16    10    11    1
    17    10    13    1
    18    10    20    1
    19    10    25    1
    20    11    12    1
    21    11    19    1
    22    11    51    1
    23    12    15    1
    24    12    16    1
    25    12    26    1
    26    13    17    1
    27    13    18    1
    28    13    52    1
    29    14    16    1
    30    14    21    1
    31    14    22    1
    32    14    30    1
    33    15    18    1
    34    15    53    1
    35    16    28    2
    36    17    23    1
    37    17    31    1
    38    17    32    1
    39    18    54    1
    40    18    55    1
    41    19    21    1
    42    19    56    1
    43    19    57    1
    44    20    24    1
    45    20    58    1
    46    21    59    1
    47    21    60    1
    48    22    27    1
    49    22    29    1
    50    22    61    1
    51    23    24    1
    52    23    62    1
    53    24    63    1
    54    24    64    1
    55    25    65    1
    56    25    66    1
    57    25    67    1
    58    26    68    1
    59    26    69    1
    60    26    70    1
    61    27    28    1
    62    27    71    1
    63    27    72    1
    64    28    73    1
    65    29    33    1
    66    29    34    1
    67    29    74    1
    68    30    75    1
    69    30    76    1
    70    30    77    1
    71    31    78    1
    72    31    79    1
    73    31    80    1
    74    32    81    1
    75    32    82    1
    76    32    83    1
    77    33    35    1
    78    33    84    1
    79    33    85    1
    80    34    86    1
    81    34    87    1
    82    35    36    1
    83    35    88    1
    84    36    40    1
    85    36    89    1
    86    37    41    1
    87    38    42    1
    88    39    43    1
    89    40    44    1
    90    40    45    1
    91    41    90    1
    92    41    91    1
    93    41    92    1
    94    42    93    1
    95    42    94    1
    96    42    95    1
    97    43    46   ar
    98    43    47   ar
    99    44    97    1
   100    44    98    1
   101    44    99    1
   102    45   100    1
   103    45   101    1
   104    45   102    1
   105    46    48   ar
   106    46   104    1
   107    47    49   ar
   108    47   105    1
   109    48    50   ar
   110    48   106    1
   111    49    50   ar
   112    49   107    1
   113    50   108    1
