@<TRIPOS>MOLECULE
IMPHY013526
 55 58 0 0 0
SMALL
GASTEIGER

@<TRIPOS>ATOM
      1 O           8.1223   -1.9203    0.0000 O.3     1  UNL1       -0.4607
      2 O           5.5103    1.6081    0.0000 O.3     1  UNL1       -0.3886
      3 O           7.2762    2.6459    0.0000 O.3     1  UNL1       -0.3849
      4 O           4.6497    1.1112    0.0000 O.2     1  UNL1       -0.2882
      5 O           2.8680    0.1008    0.0000 O.2     1  UNL1       -0.4919
      6 O           9.8438   -1.9531    0.0000 O.2     1  UNL1       -0.2508
      7 C           7.2641   -0.4234    0.0000 C.3     1  UNL1        0.0182
      8 C           6.3981    0.0766    0.0000 C.3     1  UNL1        0.0099
      9 C           5.5320   -0.4234    0.0000 C.3     1  UNL1        0.0432
     10 C           5.5320   -1.4234    0.0000 C.3     1  UNL1       -0.0186
     11 C           7.2641   -1.4234    0.0000 C.3     1  UNL1        0.1096
     12 C           8.1741    0.0835    0.0000 C.3     1  UNL1        0.0015
     13 C           6.3981   -1.9234    0.0000 C.3     1  UNL1       -0.0109
     14 C           6.3820    1.1181    0.0000 C.3     1  UNL1        0.0892
     15 C           4.6381   -1.9580    0.0000 C.3     1  UNL1       -0.0181
     16 C           7.2641    0.5766    0.0000 C.3     1  UNL1       -0.0553
     17 C           7.2800    1.6459    0.0000 C.3     1  UNL1        0.1024
     18 C           8.1821    1.1251    0.0000 C.2     1  UNL1       -0.0418
     19 C           9.0134   -0.4447    0.0000 C.3     1  UNL1        0.0521
     20 C           5.5320    0.5766    0.0000 C.3     1  UNL1       -0.0517
     21 C           4.6381    0.1113    0.0000 C.2     1  UNL1        0.2034
     22 C           8.9878   -1.4361    0.0000 C.2     1  UNL1        0.3079
     23 C           3.7320   -1.4442    0.0000 C.2     1  UNL1       -0.0356
     24 C           3.7320   -0.4025    0.0000 C.2     1  UNL1        0.1592
     25 C           4.6497   -2.9580    0.0000 C.3     1  UNL1       -0.0585
     26 C           9.0501    1.6217    0.0000 C.2     1  UNL1       -0.0966
     27 C           2.0000   -0.3959    0.0000 C.3     1  UNL1        0.0789
     28 H           5.8588    0.3825    0.0000 H       1  UNL1        0.0343
     29 H           5.5368   -2.0433    0.0000 H       1  UNL1        0.0317
     30 H           7.2637   -2.0434    0.0000 H       1  UNL1        0.0740
     31 H           8.7180    0.3811    0.0000 H       1  UNL1        0.0358
     32 H           5.9995   -2.3983    0.0000 H       1  UNL1        0.0304
     33 H           6.7966   -2.3983    0.0000 H       1  UNL1        0.0304
     34 H           5.8493    0.8009    0.0000 H       1  UNL1        0.0626
     35 H           4.1042   -2.2732    0.0000 H       1  UNL1        0.0344
     36 H           7.8841    0.5766    0.0000 H       1  UNL1        0.0237
     37 H           7.2641    1.1966    0.0000 H       1  UNL1        0.0237
     38 H           6.6441    0.5766    0.0000 H       1  UNL1        0.0237
     39 H           6.7413    1.9528    0.0000 H       1  UNL1        0.0666
     40 H           9.6205   -0.5706    0.0000 H       1  UNL1        0.0384
     41 H           9.2452    0.1303    0.0000 H       1  UNL1        0.0384
     42 H           6.1520    0.5766    0.0000 H       1  UNL1        0.0239
     43 H           5.5320    1.1966    0.0000 H       1  UNL1        0.0239
     44 H           4.9120    0.5766    0.0000 H       1  UNL1        0.0239
     45 H           3.1963   -1.7562    0.0000 H       1  UNL1        0.0612
     46 H           4.0297   -2.9651    0.0000 H       1  UNL1        0.0235
     47 H           4.6568   -3.5779    0.0000 H       1  UNL1        0.0235
     48 H           5.2696   -2.9508    0.0000 H       1  UNL1        0.0235
     49 H           5.5031    2.2280    0.0000 H       1  UNL1        0.2099
     50 H           9.5858    1.3097    0.0000 H       1  UNL1        0.0535
     51 H           9.0525    2.2417    0.0000 H       1  UNL1        0.0535
     52 H           7.8119    2.9580    0.0000 H       1  UNL1        0.2103
     53 H           1.6921    0.1423    0.0000 H       1  UNL1        0.0660
     54 H           1.4619   -0.7038    0.0000 H       1  UNL1        0.0660
     55 H           2.3079   -0.9340    0.0000 H       1  UNL1        0.0660
@<TRIPOS>BOND
     1     1    11    1
     2     1    22    1
     3     2    14    1
     4     2    49    1
     5     3    17    1
     6     3    52    1
     7     4    21    2
     8     5    24    1
     9     5    27    1
    10     6    22    2
    11     7     8    1
    12     7    11    1
    13     7    12    1
    14     7    16    1
    15     8     9    1
    16     8    14    1
    17     8    28    1
    18     9    10    1
    19     9    20    1
    20     9    21    1
    21    10    13    1
    22    10    15    1
    23    10    29    1
    24    11    13    1
    25    11    30    1
    26    12    18    1
    27    12    19    1
    28    12    31    1
    29    13    32    1
    30    13    33    1
    31    14    17    1
    32    14    34    1
    33    15    23    1
    34    15    25    1
    35    15    35    1
    36    16    36    1
    37    16    37    1
    38    16    38    1
    39    17    18    1
    40    17    39    1
    41    18    26    2
    42    19    22    1
    43    19    40    1
    44    19    41    1
    45    20    42    1
    46    20    43    1
    47    20    44    1
    48    21    24    1
    49    23    24    2
    50    23    45    1
    51    25    46    1
    52    25    47    1
    53    25    48    1
    54    26    50    1
    55    26    51    1
    56    27    53    1
    57    27    54    1
    58    27    55    1
