@<TRIPOS>MOLECULE
IMPHY014083
 61 63 0 0 0
SMALL
GASTEIGER

@<TRIPOS>ATOM
      1 O           6.6962    6.6830    0.0000 O.3     1  UNL1       -0.3652
      2 O           5.4641    4.8170    0.0000 O.3     1  UNL1       -0.3874
      3 O           4.5981    1.3170    0.0000 O.3     1  UNL1       -0.4880
      4 O           2.0000   -4.1830    0.0000 O.2     1  UNL1       -0.2702
      5 N           3.7320   -4.1830    0.0000 N.am    1  UNL1       -0.3110
      6 C           7.6962    6.6830    0.0000 C.3     1  UNL1        0.0905
      7 C           7.1962    5.8170    0.0000 C.3     1  UNL1        0.0905
      8 C           7.1962    4.8170    0.0000 C.3     1  UNL1        0.0061
      9 C           7.6962    7.6830    0.0000 C.3     1  UNL1       -0.0336
     10 C           8.5622    6.1830    0.0000 C.3     1  UNL1       -0.0336
     11 C           6.3301    4.3170    0.0000 C.3     1  UNL1        0.0785
     12 C           6.3301    3.3170    0.0000 C.2     1  UNL1       -0.0452
     13 C           7.1962    2.8170    0.0000 C.3     1  UNL1       -0.0413
     14 C           5.4641    2.8170    0.0000 C.2     1  UNL1       -0.0457
     15 C           5.4641    1.8170    0.0000 C.3     1  UNL1        0.1081
     16 C           4.5981    0.3170    0.0000 C.ar    1  UNL1        0.1210
     17 C           4.5981   -1.6830    0.0000 C.ar    1  UNL1       -0.0457
     18 C           4.5981   -2.6830    0.0000 C.3     1  UNL1       -0.0120
     19 C           3.7320   -0.1830    0.0000 C.ar    1  UNL1       -0.0197
     20 C           5.4641   -0.1830    0.0000 C.ar    1  UNL1       -0.0197
     21 C           3.7320   -1.1830    0.0000 C.ar    1  UNL1       -0.0551
     22 C           5.4641   -1.1830    0.0000 C.ar    1  UNL1       -0.0551
     23 C           3.7320   -3.1830    0.0000 C.3     1  UNL1        0.0159
     24 C           2.8660   -4.6830    0.0000 C.2     1  UNL1        0.2441
     25 C           2.8660   -5.6830    0.0000 C.ar    1  UNL1        0.0367
     26 C           2.0000   -6.1830    0.0000 C.ar    1  UNL1       -0.0496
     27 C           3.7320   -6.1830    0.0000 C.ar    1  UNL1       -0.0496
     28 C           2.0000   -7.1830    0.0000 C.ar    1  UNL1       -0.0610
     29 C           3.7320   -7.1830    0.0000 C.ar    1  UNL1       -0.0610
     30 C           2.8660   -7.6830    0.0000 C.ar    1  UNL1       -0.0617
     31 H           6.5973    5.6565    0.0000 H       1  UNL1        0.0626
     32 H           7.4082    4.2344    0.0000 H       1  UNL1        0.0319
     33 H           7.8067    4.9246    0.0000 H       1  UNL1        0.0319
     34 H           8.3162    7.6830    0.0000 H       1  UNL1        0.0258
     35 H           7.6962    8.3030    0.0000 H       1  UNL1        0.0258
     36 H           7.0762    7.6830    0.0000 H       1  UNL1        0.0258
     37 H           8.2522    5.6461    0.0000 H       1  UNL1        0.0258
     38 H           9.0991    5.8730    0.0000 H       1  UNL1        0.0258
     39 H           8.8722    6.7200    0.0000 H       1  UNL1        0.0258
     40 H           5.7932    4.0070    0.0000 H       1  UNL1        0.0641
     41 H           5.4641    5.4370    0.0000 H       1  UNL1        0.2102
     42 H           6.8862    2.2800    0.0000 H       1  UNL1        0.0275
     43 H           7.7331    2.5070    0.0000 H       1  UNL1        0.0275
     44 H           7.5062    3.3539    0.0000 H       1  UNL1        0.0275
     45 H           4.9272    3.1270    0.0000 H       1  UNL1        0.0606
     46 H           5.6762    1.2344    0.0000 H       1  UNL1        0.0742
     47 H           6.0747    1.9246    0.0000 H       1  UNL1        0.0742
     48 H           4.8101   -3.2656    0.0000 H       1  UNL1        0.0328
     49 H           5.2087   -2.5753    0.0000 H       1  UNL1        0.0328
     50 H           3.1951    0.1270    0.0000 H       1  UNL1        0.0654
     51 H           6.0010    0.1270    0.0000 H       1  UNL1        0.0654
     52 H           3.1951   -1.4930    0.0000 H       1  UNL1        0.0621
     53 H           6.0010   -1.4930    0.0000 H       1  UNL1        0.0621
     54 H           3.5200   -2.6004    0.0000 H       1  UNL1        0.0465
     55 H           3.1215   -3.2907    0.0000 H       1  UNL1        0.0465
     56 H           4.2690   -4.4930    0.0000 H       1  UNL1        0.1490
     57 H           1.4631   -5.8730    0.0000 H       1  UNL1        0.0625
     58 H           4.2690   -5.8730    0.0000 H       1  UNL1        0.0625
     59 H           1.4631   -7.4930    0.0000 H       1  UNL1        0.0618
     60 H           4.2690   -7.4930    0.0000 H       1  UNL1        0.0618
     61 H           2.8660   -8.3030    0.0000 H       1  UNL1        0.0618
@<TRIPOS>BOND
     1     1     6    1
     2     1     7    1
     3     2    11    1
     4     2    41    1
     5     3    15    1
     6     3    16    1
     7     4    24    2
     8     5    23    1
     9     5    24   am
    10     5    56    1
    11     6     7    1
    12     6     9    1
    13     6    10    1
    14     7     8    1
    15     7    31    1
    16     8    11    1
    17     8    32    1
    18     8    33    1
    19     9    34    1
    20     9    35    1
    21     9    36    1
    22    10    37    1
    23    10    38    1
    24    10    39    1
    25    11    12    1
    26    11    40    1
    27    12    13    1
    28    12    14    2
    29    13    42    1
    30    13    43    1
    31    13    44    1
    32    14    15    1
    33    14    45    1
    34    15    46    1
    35    15    47    1
    36    16    19   ar
    37    16    20   ar
    38    17    18    1
    39    17    21   ar
    40    17    22   ar
    41    18    23    1
    42    18    48    1
    43    18    49    1
    44    19    21   ar
    45    19    50    1
    46    20    22   ar
    47    20    51    1
    48    21    52    1
    49    22    53    1
    50    23    54    1
    51    23    55    1
    52    24    25    1
    53    25    26   ar
    54    25    27   ar
    55    26    28   ar
    56    26    57    1
    57    27    29   ar
    58    27    58    1
    59    28    30   ar
    60    28    59    1
    61    29    30   ar
    62    29    60    1
    63    30    61    1
