@<TRIPOS>MOLECULE
IMPHY008735
 43 47 0 0 0
SMALL
GASTEIGER

@<TRIPOS>ATOM
      1 O           5.7497    2.7168    0.0000 O.3     1  UNL1       -0.4563
      2 O           3.4519   -2.9396    0.0000 O.3     1  UNL1       -0.4526
      3 O           2.0000   -2.1014    0.0000 O.3     1  UNL1       -0.4526
      4 O           4.0931    3.3581    0.0000 O.2     1  UNL1       -0.2449
      5 O           7.1498   -2.8581    0.0000 O.3     1  UNL1       -0.4914
      6 O           8.8819   -1.8581    0.0000 O.3     1  UNL1       -0.4915
      7 C           5.4178    0.1419    0.0000 C.ar    1  UNL1       -0.0028
      8 C           5.4178    1.1419    0.0000 C.ar    1  UNL1        0.0120
      9 C           4.5518   -0.3581    0.0000 C.ar    1  UNL1       -0.0061
     10 C           3.6857    0.1419    0.0000 C.ar    1  UNL1       -0.0128
     11 C           4.5518    1.6419    0.0000 C.ar    1  UNL1        0.0666
     12 C           6.1548    1.8090    0.0000 C.3     1  UNL1        0.1192
     13 C           3.6857    1.1419    0.0000 C.ar    1  UNL1       -0.0395
     14 C           6.2838   -0.3581    0.0000 C.ar    1  UNL1       -0.0132
     15 C           4.5678   -1.3996    0.0000 C.ar    1  UNL1       -0.0078
     16 C           2.7757   -0.3649    0.0000 C.ar    1  UNL1       -0.0084
     17 C           3.6698   -1.9273    0.0000 C.ar    1  UNL1        0.1668
     18 C           2.7677   -1.4065    0.0000 C.ar    1  UNL1        0.1668
     19 C           4.7610    2.6138    0.0000 C.2     1  UNL1        0.3399
     20 C           6.2838   -1.3581    0.0000 C.ar    1  UNL1       -0.0086
     21 C           7.1498    0.1419    0.0000 C.ar    1  UNL1       -0.0503
     22 C           2.4220   -3.0469    0.0000 C.3     1  UNL1        0.2332
     23 C           7.1498   -1.8581    0.0000 C.ar    1  UNL1        0.1621
     24 C           8.0159   -0.3581    0.0000 C.ar    1  UNL1       -0.0157
     25 C           8.0159   -1.3581    0.0000 C.ar    1  UNL1        0.1615
     26 C           8.0159   -3.3581    0.0000 C.3     1  UNL1        0.0790
     27 C           9.7479   -1.3581    0.0000 C.3     1  UNL1        0.0790
     28 H           6.5202    1.3082    0.0000 H       1  UNL1        0.0749
     29 H           6.6913    2.1198    0.0000 H       1  UNL1        0.0749
     30 H           3.1488    1.4519    0.0000 H       1  UNL1        0.0632
     31 H           5.1083   -1.7033    0.0000 H       1  UNL1        0.0662
     32 H           2.2424   -0.0487    0.0000 H       1  UNL1        0.0661
     33 H           5.7469   -1.6681    0.0000 H       1  UNL1        0.0661
     34 H           7.1498    0.7619    0.0000 H       1  UNL1        0.0625
     35 H           1.8324   -3.2387    0.0000 H       1  UNL1        0.1166
     36 H           2.5507   -3.6534    0.0000 H       1  UNL1        0.1166
     37 H           8.5528   -0.0481    0.0000 H       1  UNL1        0.0655
     38 H           7.7059   -3.8950    0.0000 H       1  UNL1        0.0660
     39 H           8.5528   -3.6681    0.0000 H       1  UNL1        0.0660
     40 H           8.3259   -2.8211    0.0000 H       1  UNL1        0.0660
     41 H          10.0579   -1.8950    0.0000 H       1  UNL1        0.0660
     42 H          10.2848   -1.0481    0.0000 H       1  UNL1        0.0660
     43 H           9.4379   -0.8211    0.0000 H       1  UNL1        0.0660
@<TRIPOS>BOND
     1     1    12    1
     2     1    19    1
     3     2    17    1
     4     2    22    1
     5     3    18    1
     6     3    22    1
     7     4    19    2
     8     5    23    1
     9     5    26    1
    10     6    25    1
    11     6    27    1
    12     7     8   ar
    13     7     9   ar
    14     7    14    1
    15     8    11   ar
    16     8    12    1
    17     9    10   ar
    18     9    15   ar
    19    10    13   ar
    20    10    16   ar
    21    11    13   ar
    22    11    19    1
    23    12    28    1
    24    12    29    1
    25    13    30    1
    26    14    20   ar
    27    14    21   ar
    28    15    17   ar
    29    15    31    1
    30    16    18   ar
    31    16    32    1
    32    17    18   ar
    33    20    23   ar
    34    20    33    1
    35    21    24   ar
    36    21    34    1
    37    22    35    1
    38    22    36    1
    39    23    25   ar
    40    24    25   ar
    41    24    37    1
    42    26    38    1
    43    26    39    1
    44    26    40    1
    45    27    41    1
    46    27    42    1
    47    27    43    1
