@<TRIPOS>MOLECULE
IMPHY013205
 46 47 0 0 0
SMALL
GASTEIGER

@<TRIPOS>ATOM
      1 O           7.1962    5.6550    0.0000 O.3     1  UNL1       -0.4915
      2 O           8.9282    4.6550    0.0000 O.3     1  UNL1       -0.5033
      3 O           2.8660   -4.8450    0.0000 O.3     1  UNL1       -0.4914
      4 O           4.5981    0.1550    0.0000 O.2     1  UNL1       -0.2708
      5 O           4.5981   -5.8450    0.0000 O.3     1  UNL1       -0.5033
      6 N           6.3301    0.1550    0.0000 N.am    1  UNL1       -0.3115
      7 C           7.1962    1.6550    0.0000 C.3     1  UNL1       -0.0119
      8 C           7.1962    2.6550    0.0000 C.ar    1  UNL1       -0.0422
      9 C           6.3301    1.1550    0.0000 C.3     1  UNL1        0.0159
     10 C           8.0622    3.1550    0.0000 C.ar    1  UNL1       -0.0133
     11 C           6.3301    3.1550    0.0000 C.ar    1  UNL1       -0.0548
     12 C           8.0622    4.1550    0.0000 C.ar    1  UNL1        0.1587
     13 C           6.3301    4.1550    0.0000 C.ar    1  UNL1       -0.0161
     14 C           7.1962    4.6550    0.0000 C.ar    1  UNL1        0.1613
     15 C           5.4641   -0.3450    0.0000 C.2     1  UNL1        0.2369
     16 C           4.5981   -2.8450    0.0000 C.ar    1  UNL1       -0.0212
     17 C           5.4641   -1.3450    0.0000 C.2     1  UNL1        0.0007
     18 C           4.5981   -1.8450    0.0000 C.2     1  UNL1       -0.0496
     19 C           3.7320   -3.3450    0.0000 C.ar    1  UNL1       -0.0092
     20 C           5.4641   -3.3450    0.0000 C.ar    1  UNL1       -0.0509
     21 C           3.7320   -4.3450    0.0000 C.ar    1  UNL1        0.1618
     22 C           4.5981   -4.8450    0.0000 C.ar    1  UNL1        0.1585
     23 C           5.4641   -4.3450    0.0000 C.ar    1  UNL1       -0.0160
     24 C           6.3301    6.1550    0.0000 C.3     1  UNL1        0.0790
     25 C           2.0000   -4.3450    0.0000 C.3     1  UNL1        0.0790
     26 H           7.4082    1.0724    0.0000 H       1  UNL1        0.0328
     27 H           7.8067    1.7627    0.0000 H       1  UNL1        0.0328
     28 H           6.1181    1.7376    0.0000 H       1  UNL1        0.0465
     29 H           5.7196    1.0473    0.0000 H       1  UNL1        0.0465
     30 H           8.5991    2.8450    0.0000 H       1  UNL1        0.0658
     31 H           5.7932    2.8450    0.0000 H       1  UNL1        0.0621
     32 H           6.8671   -0.1550    0.0000 H       1  UNL1        0.1490
     33 H           5.7932    4.4650    0.0000 H       1  UNL1        0.0655
     34 H           6.0010   -1.6550    0.0000 H       1  UNL1        0.0669
     35 H           4.0611   -1.5350    0.0000 H       1  UNL1        0.0625
     36 H           3.1951   -3.0350    0.0000 H       1  UNL1        0.0661
     37 H           6.0010   -3.0350    0.0000 H       1  UNL1        0.0625
     38 H           6.0010   -4.6550    0.0000 H       1  UNL1        0.0655
     39 H           9.4651    4.3450    0.0000 H       1  UNL1        0.2923
     40 H           6.6401    6.6919    0.0000 H       1  UNL1        0.0660
     41 H           5.7932    6.4650    0.0000 H       1  UNL1        0.0660
     42 H           6.0201    5.6181    0.0000 H       1  UNL1        0.0660
     43 H           5.1350   -6.1550    0.0000 H       1  UNL1        0.2923
     44 H           2.3100   -3.8081    0.0000 H       1  UNL1        0.0660
     45 H           1.4631   -4.0350    0.0000 H       1  UNL1        0.0660
     46 H           1.6900   -4.8819    0.0000 H       1  UNL1        0.0660
@<TRIPOS>BOND
     1     1    14    1
     2     1    24    1
     3     2    12    1
     4     2    39    1
     5     3    21    1
     6     3    25    1
     7     4    15    2
     8     5    22    1
     9     5    43    1
    10     6     9    1
    11     6    15   am
    12     6    32    1
    13     7     8    1
    14     7     9    1
    15     7    26    1
    16     7    27    1
    17     8    10   ar
    18     8    11   ar
    19     9    28    1
    20     9    29    1
    21    10    12   ar
    22    10    30    1
    23    11    13   ar
    24    11    31    1
    25    12    14   ar
    26    13    14   ar
    27    13    33    1
    28    15    17    1
    29    16    18    1
    30    16    19   ar
    31    16    20   ar
    32    17    18    2
    33    17    34    1
    34    18    35    1
    35    19    21   ar
    36    19    36    1
    37    20    23   ar
    38    20    37    1
    39    21    22   ar
    40    22    23   ar
    41    23    38    1
    42    24    40    1
    43    24    41    1
    44    24    42    1
    45    25    44    1
    46    25    45    1
    47    25    46    1
