@<TRIPOS>MOLECULE
IMPHY012021
 18 18 0 0 0
SMALL
GASTEIGER

@<TRIPOS>ATOM
      1 O           4.2690    2.4050    0.0000 O.3     1  UNL1       -0.5009
      2 O           6.0010    1.4050    0.0000 O.3     1  UNL1       -0.5032
      3 O           2.5369    1.4050    0.0000 O.3     1  UNL1       -0.5032
      4 O           3.4030   -2.0950    0.0000 O.3     1  UNL1       -0.4771
      5 O           5.1350   -2.0950    0.0000 O.2     1  UNL1       -0.2451
      6 C           4.2690   -0.5950    0.0000 C.ar    1  UNL1        0.0660
      7 C           4.2690    1.4050    0.0000 C.ar    1  UNL1        0.2006
      8 C           5.1350    0.9050    0.0000 C.ar    1  UNL1        0.1628
      9 C           3.4030    0.9050    0.0000 C.ar    1  UNL1        0.1628
     10 C           5.1350   -0.0950    0.0000 C.ar    1  UNL1       -0.0023
     11 C           3.4030   -0.0950    0.0000 C.ar    1  UNL1       -0.0023
     12 C           4.2690   -1.5950    0.0000 C.2     1  UNL1        0.3370
     13 H           5.6720   -0.4050    0.0000 H       1  UNL1        0.0663
     14 H           2.8660   -0.4050    0.0000 H       1  UNL1        0.0663
     15 H           4.8059    2.7150    0.0000 H       1  UNL1        0.2924
     16 H           6.5380    1.0950    0.0000 H       1  UNL1        0.2923
     17 H           2.0000    1.0950    0.0000 H       1  UNL1        0.2923
     18 H           3.4030   -2.7150    0.0000 H       1  UNL1        0.2954
@<TRIPOS>BOND
     1     1     7    1
     2     1    15    1
     3     2     8    1
     4     2    16    1
     5     3     9    1
     6     3    17    1
     7     4    12    1
     8     4    18    1
     9     5    12    2
    10     6    10   ar
    11     6    11   ar
    12     6    12    1
    13     7     8   ar
    14     7     9   ar
    15     8    10   ar
    16     9    11   ar
    17    10    13    1
    18    11    14    1
