@<TRIPOS>MOLECULE
IMPHY003049
 111 113 0 0 0
SMALL
GASTEIGER

@<TRIPOS>ATOM
      1 O           7.7331    0.0568    0.0000 O.3     1  UNL1       -0.3401
      2 O           6.0010    0.0568    0.0000 O.3     1  UNL1       -0.3405
      3 O           4.2690   -1.9432    0.0000 O.3     1  UNL1       -0.3401
      4 O           8.5991    2.5568    0.0000 O.3     1  UNL1       -0.3405
      5 O           6.0010   -2.9432    0.0000 O.3     1  UNL1       -0.3744
      6 O           7.7331   -1.9432    0.0000 O.3     1  UNL1       -0.3721
      7 O           6.0010    1.0568    0.0000 O.3     1  UNL1       -0.3686
      8 O           5.1350   -3.4432    0.0000 O.3     1  UNL1       -0.3405
      9 O           6.2243    3.3228    0.0000 O.3     1  UNL1       -0.3663
     10 O           7.7331    4.0568    0.0000 O.3     1  UNL1       -0.3519
     11 O           4.2690    1.0568    0.0000 O.3     1  UNL1       -0.3803
     12 O          10.3312    1.5568    0.0000 O.3     1  UNL1       -0.3746
     13 O           2.5369   -2.9432    0.0000 O.3     1  UNL1       -0.3841
     14 O           4.2690   -5.9432    0.0000 O.3     1  UNL1       -0.3745
     15 O           2.5369   -4.9432    0.0000 O.3     1  UNL1       -0.3864
     16 O           6.8671   -4.4432    0.0000 O.3     1  UNL1       -0.3924
     17 O           3.8082    2.6701    0.0000 O.3     1  UNL1       -0.3898
     18 O           6.2655    5.9683    0.0000 O.3     1  UNL1       -0.3898
     19 O          12.9292    1.0568    0.0000 O.3     1  UNL1       -0.3898
     20 C           5.1350   -1.4432    0.0000 C.3     1  UNL1        0.1187
     21 C           6.0010   -1.9432    0.0000 C.3     1  UNL1        0.1177
     22 C           7.7331    1.0568    0.0000 C.3     1  UNL1        0.1187
     23 C           6.8671   -1.4432    0.0000 C.3     1  UNL1        0.1374
     24 C           6.8671   -0.4432    0.0000 C.3     1  UNL1        0.1887
     25 C           5.1350   -0.4432    0.0000 C.3     1  UNL1        0.1136
     26 C           6.8671    1.5568    0.0000 C.3     1  UNL1        0.1182
     27 C           8.5991    1.5568    0.0000 C.3     1  UNL1        0.1136
     28 C           6.8671    2.5568    0.0000 C.3     1  UNL1        0.1379
     29 C           7.7331    3.0568    0.0000 C.3     1  UNL1        0.1879
     30 C           4.2690   -2.9432    0.0000 C.3     1  UNL1        0.1884
     31 C           3.4030   -3.4432    0.0000 C.3     1  UNL1        0.1341
     32 C           4.2690    0.0568    0.0000 C.3     1  UNL1        0.0761
     33 C           3.4030   -4.4432    0.0000 C.3     1  UNL1        0.1143
     34 C           4.2690   -4.9432    0.0000 C.3     1  UNL1        0.1150
     35 C           5.1350   -4.4432    0.0000 C.3     1  UNL1        0.1133
     36 C           9.4651    1.0568    0.0000 C.3     1  UNL1        0.0766
     37 C           6.0010   -4.9432    0.0000 C.3     1  UNL1        0.0730
     38 C           5.1350    1.5568    0.0000 C.3     1  UNL1        0.0739
     39 C           6.5663    4.2625    0.0000 C.3     1  UNL1        0.0740
     40 C           6.8671   -3.4432    0.0000 C.3     1  UNL1        0.0370
     41 C           8.5991   -1.4432    0.0000 C.3     1  UNL1        0.0371
     42 C           4.7930    2.4965    0.0000 C.3     1  UNL1        0.0757
     43 C           5.9235    5.0286    0.0000 C.3     1  UNL1        0.0757
     44 C          11.1972    1.0568    0.0000 C.3     1  UNL1        0.0734
     45 C           8.5991    4.5568    0.0000 C.3     1  UNL1        0.0395
     46 C           3.4030    1.5568    0.0000 C.3     1  UNL1        0.0366
     47 C           5.1350   -6.4432    0.0000 C.3     1  UNL1        0.0370
     48 C           5.4358    3.2625    0.0000 C.3     1  UNL1       -0.0368
     49 C          12.0632    1.5568    0.0000 C.3     1  UNL1        0.0757
     50 C           4.9387    4.8549    0.0000 C.3     1  UNL1       -0.0368
     51 C          12.0632    2.5568    0.0000 C.3     1  UNL1       -0.0368
     52 H           5.1350   -2.0632    0.0000 H       1  UNL1        0.0651
     53 H           6.5380   -2.2532    0.0000 H       1  UNL1        0.0650
     54 H           7.1962    0.7468    0.0000 H       1  UNL1        0.0651
     55 H           7.4040   -1.1332    0.0000 H       1  UNL1        0.0674
     56 H           6.8671    0.1768    0.0000 H       1  UNL1        0.0938
     57 H           5.1350    0.1768    0.0000 H       1  UNL1        0.0647
     58 H           6.3301    1.8668    0.0000 H       1  UNL1        0.0651
     59 H           9.1360    1.8668    0.0000 H       1  UNL1        0.0647
     60 H           6.2844    2.3447    0.0000 H       1  UNL1        0.0674
     61 H           7.1962    3.3668    0.0000 H       1  UNL1        0.0937
     62 H           3.7320   -2.6332    0.0000 H       1  UNL1        0.0938
     63 H           3.9399   -3.7532    0.0000 H       1  UNL1        0.0671
     64 H           3.6584    0.1645    0.0000 H       1  UNL1        0.0586
     65 H           4.0569   -0.5258    0.0000 H       1  UNL1        0.0586
     66 H           3.4030   -5.0632    0.0000 H       1  UNL1        0.0648
     67 H           4.8059   -5.2532    0.0000 H       1  UNL1        0.0649
     68 H           5.6720   -4.1332    0.0000 H       1  UNL1        0.0647
     69 H           9.0666    0.5818    0.0000 H       1  UNL1        0.0586
     70 H           9.8637    0.5818    0.0000 H       1  UNL1        0.0586
     71 H           5.6025   -5.4182    0.0000 H       1  UNL1        0.0584
     72 H           6.3996   -5.4182    0.0000 H       1  UNL1        0.0584
     73 H           4.5161    1.5207    0.0000 H       1  UNL1        0.0585
     74 H           4.9920    0.9535    0.0000 H       1  UNL1        0.0585
     75 H           7.1032    3.9525    0.0000 H       1  UNL1        0.0585
     76 H           6.9648    4.7375    0.0000 H       1  UNL1        0.0585
     77 H           6.5571   -3.9802    0.0000 H       1  UNL1        0.0524
     78 H           7.4040   -3.7532    0.0000 H       1  UNL1        0.0524
     79 H           7.1771   -2.9063    0.0000 H       1  UNL1        0.0524
     80 H           8.9091   -1.9802    0.0000 H       1  UNL1        0.0524
     81 H           9.1360   -1.1332    0.0000 H       1  UNL1        0.0524
     82 H           8.2891   -0.9063    0.0000 H       1  UNL1        0.0524
     83 H           2.0000   -3.2532    0.0000 H       1  UNL1        0.2101
     84 H           2.5369   -5.5632    0.0000 H       1  UNL1        0.2100
     85 H           4.3945    2.0215    0.0000 H       1  UNL1        0.0613
     86 H           6.5341    5.1362    0.0000 H       1  UNL1        0.0613
     87 H          10.7987    0.5818    0.0000 H       1  UNL1        0.0585
     88 H          11.5957    0.5818    0.0000 H       1  UNL1        0.0585
     89 H           8.9091    4.0198    0.0000 H       1  UNL1        0.0525
     90 H           9.1360    4.8668    0.0000 H       1  UNL1        0.0525
     91 H           8.2891    5.0937    0.0000 H       1  UNL1        0.0525
     92 H           3.7130    2.0937    0.0000 H       1  UNL1        0.0524
     93 H           2.8660    1.8668    0.0000 H       1  UNL1        0.0524
     94 H           3.0930    1.0198    0.0000 H       1  UNL1        0.0524
     95 H           4.8250   -6.9802    0.0000 H       1  UNL1        0.0524
     96 H           5.6720   -6.7532    0.0000 H       1  UNL1        0.0524
     97 H           5.4450   -5.9063    0.0000 H       1  UNL1        0.0524
     98 H           7.4040   -4.7532    0.0000 H       1  UNL1        0.2095
     99 H           5.9107    2.8640    0.0000 H       1  UNL1        0.0255
    100 H           5.8343    3.7375    0.0000 H       1  UNL1        0.0255
    101 H           4.9608    3.6610    0.0000 H       1  UNL1        0.0255
    102 H          12.6002    1.8668    0.0000 H       1  UNL1        0.0613
    103 H           4.8310    5.4655    0.0000 H       1  UNL1        0.0255
    104 H           4.3281    4.7473    0.0000 H       1  UNL1        0.0255
    105 H           5.0464    4.2443    0.0000 H       1  UNL1        0.0255
    106 H           3.4097    2.1952    0.0000 H       1  UNL1        0.2099
    107 H           5.8670    6.4432    0.0000 H       1  UNL1        0.2099
    108 H          12.6832    2.5568    0.0000 H       1  UNL1        0.0255
    109 H          12.0632    3.1768    0.0000 H       1  UNL1        0.0255
    110 H          11.4432    2.5568    0.0000 H       1  UNL1        0.0255
    111 H          13.4662    1.3668    0.0000 H       1  UNL1        0.2099
@<TRIPOS>BOND
     1     1    22    1
     2     1    24    1
     3     2    24    1
     4     2    25    1
     5     3    20    1
     6     3    30    1
     7     4    27    1
     8     4    29    1
     9     5    21    1
    10     5    40    1
    11     6    23    1
    12     6    41    1
    13     7    26    1
    14     7    38    1
    15     8    30    1
    16     8    35    1
    17     9    28    1
    18     9    39    1
    19    10    29    1
    20    10    45    1
    21    11    32    1
    22    11    46    1
    23    12    36    1
    24    12    44    1
    25    13    31    1
    26    13    83    1
    27    14    34    1
    28    14    47    1
    29    15    33    1
    30    15    84    1
    31    16    37    1
    32    16    98    1
    33    17    42    1
    34    17   106    1
    35    18    43    1
    36    18   107    1
    37    19    49    1
    38    19   111    1
    39    20    21    1
    40    20    25    1
    41    20    52    1
    42    21    23    1
    43    21    53    1
    44    22    26    1
    45    22    27    1
    46    22    54    1
    47    23    24    1
    48    23    55    1
    49    24    56    1
    50    25    32    1
    51    25    57    1
    52    26    28    1
    53    26    58    1
    54    27    36    1
    55    27    59    1
    56    28    29    1
    57    28    60    1
    58    29    61    1
    59    30    31    1
    60    30    62    1
    61    31    33    1
    62    31    63    1
    63    32    64    1
    64    32    65    1
    65    33    34    1
    66    33    66    1
    67    34    35    1
    68    34    67    1
    69    35    37    1
    70    35    68    1
    71    36    69    1
    72    36    70    1
    73    37    71    1
    74    37    72    1
    75    38    42    1
    76    38    73    1
    77    38    74    1
    78    39    43    1
    79    39    75    1
    80    39    76    1
    81    40    77    1
    82    40    78    1
    83    40    79    1
    84    41    80    1
    85    41    81    1
    86    41    82    1
    87    42    48    1
    88    42    85    1
    89    43    50    1
    90    43    86    1
    91    44    49    1
    92    44    87    1
    93    44    88    1
    94    45    89    1
    95    45    90    1
    96    45    91    1
    97    46    92    1
    98    46    93    1
    99    46    94    1
   100    47    95    1
   101    47    96    1
   102    47    97    1
   103    48    99    1
   104    48   100    1
   105    48   101    1
   106    49    51    1
   107    49   102    1
   108    50   103    1
   109    50   104    1
   110    50   105    1
   111    51   108    1
   112    51   109    1
   113    51   110    1
