@<TRIPOS>MOLECULE
IMPHY014676
 23 22 0 0 0
SMALL
GASTEIGER

@<TRIPOS>ATOM
      1 O           9.7942   -1.0600    0.0000 O.2     1  UNL1       -0.2930
      2 O           2.0000    0.4400    0.0000 O.co2   1  UNL1       -0.5451
      3 O           2.8660   -1.0600    0.0000 O.co2   1  UNL1       -0.5451
      4 C           8.0622   -0.0600    0.0000 C.2     1  UNL1       -0.0550
      5 C           7.1962    0.4400    0.0000 C.2     1  UNL1       -0.0217
      6 C           8.9282    0.4400    0.0000 C.2     1  UNL1       -0.0194
      7 C           6.3301   -0.0600    0.0000 C.2     1  UNL1        0.0887
      8 C           9.7942   -0.0600    0.0000 C.2     1  UNL1        0.1530
      9 C           5.4641    0.4400    0.0000 C.cat   1  UNL1        0.1936
     10 C          10.6603    0.4400    0.0000 C.3     1  UNL1       -0.0020
     11 C           4.5981   -0.0600    0.0000 C.2     1  UNL1        0.0904
     12 C           3.7320    0.4400    0.0000 C.2     1  UNL1        0.0006
     13 C           2.8660   -0.0600    0.0000 C.2     1  UNL1        0.0680
     14 H           8.0622   -0.6800    0.0000 H       1  UNL1        0.0620
     15 H           7.1962    1.0600    0.0000 H       1  UNL1        0.0654
     16 H           8.9282    1.0600    0.0000 H       1  UNL1        0.0652
     17 H           6.3301   -0.6800    0.0000 H       1  UNL1        0.1093
     18 H           5.4641    1.0600    0.0000 H       1  UNL1        0.3157
     19 H          10.9703   -0.0969    0.0000 H       1  UNL1        0.0309
     20 H          11.1972    0.7500    0.0000 H       1  UNL1        0.0309
     21 H          10.3503    0.9769    0.0000 H       1  UNL1        0.0309
     22 H           4.5981   -0.6800    0.0000 H       1  UNL1        0.1093
     23 H           3.7320    1.0600    0.0000 H       1  UNL1        0.0672
@<TRIPOS>UNITY_ATOM_ATTR
2 1
charge -1
9 1
charge 1
@<TRIPOS>BOND
     1     1     8    2
     2     2    13   ar
     3     3    13   ar
     4     4     5    1
     5     4     6    2
     6     4    14    1
     7     5     7    2
     8     5    15    1
     9     6     8    1
    10     6    16    1
    11     7     9    1
    12     7    17    1
    13     8    10    1
    14     9    11    1
    15     9    18    1
    16    10    19    1
    17    10    20    1
    18    10    21    1
    19    11    12    2
    20    11    22    1
    21    12    13    1
    22    12    23    1
