@<TRIPOS>MOLECULE
IMPHY002754
 84 88 0 0 0
SMALL
GASTEIGER

@<TRIPOS>ATOM
      1 O           6.7350   -1.0929    0.0000 O.3     1  UNL1       -0.4864
      2 O           7.5520    3.0243    0.0000 O.2     1  UNL1       -0.2738
      3 O           8.4087    0.8734    0.0000 O.2     1  UNL1       -0.2736
      4 O          11.7853    1.8229    0.0000 O.2     1  UNL1       -0.2734
      5 O          10.1116   -3.0424    0.0000 O.3     1  UNL1       -0.4945
      6 N           7.3710    1.3018    0.0000 N.am    1  UNL1       -0.2851
      7 N           9.2456    0.3566    0.0000 N.am    1  UNL1       -0.3021
      8 N           5.5630    3.2334    0.0000 N.3     1  UNL1       -0.2974
      9 N          10.9193    0.3566    0.0000 N.am    1  UNL1       -0.2904
     10 N           2.9182    2.2725    0.0000 N.ar    1  UNL1       -0.3604
     11 C           7.5719    0.3566    0.0000 C.3     1  UNL1        0.1390
     12 C           6.7350   -0.1266    0.0000 C.3     1  UNL1        0.1285
     13 C           6.0169    0.5200    0.0000 C.3     1  UNL1        0.0024
     14 C           6.4100    1.4028    0.0000 C.3     1  UNL1        0.0191
     15 C           6.9642    2.2153    0.0000 C.2     1  UNL1        0.2338
     16 C           8.4087   -0.1266    0.0000 C.2     1  UNL1        0.2378
     17 C           5.9697    2.3198    0.0000 C.3     1  UNL1        0.0910
     18 C           9.2456    1.3229    0.0000 C.3     1  UNL1        0.1023
     19 C           5.3819    1.5108    0.0000 C.3     1  UNL1       -0.0015
     20 C           8.7456    2.1889    0.0000 C.3     1  UNL1       -0.0171
     21 C           4.3874    1.6153    0.0000 C.ar    1  UNL1       -0.0204
     22 C           7.5719   -1.5761    0.0000 C.ar    1  UNL1        0.1218
     23 C           9.2456    3.0549    0.0000 C.3     1  UNL1       -0.0512
     24 C          10.9193    1.3229    0.0000 C.2     1  UNL1        0.2374
     25 C           7.7456    2.1889    0.0000 C.3     1  UNL1       -0.0603
     26 C           4.5684    3.3379    0.0000 C.3     1  UNL1       -0.0123
     27 C           6.1508    4.0424    0.0000 C.3     1  UNL1       -0.0123
     28 C           3.7229    0.8760    0.0000 C.ar    1  UNL1        0.0029
     29 C           3.8911    2.4767    0.0000 C.ar    1  UNL1        0.0060
     30 C           8.4087   -1.0929    0.0000 C.ar    1  UNL1       -0.0092
     31 C           7.5719   -2.5424    0.0000 C.ar    1  UNL1       -0.0164
     32 C          10.2456    3.0549    0.0000 C.3     1  UNL1       -0.0650
     33 C           2.8100    1.2843    0.0000 C.ar    1  UNL1        0.0467
     34 C           9.2456   -1.5761    0.0000 C.ar    1  UNL1        0.0213
     35 C           3.8257   -0.1187    0.0000 C.ar    1  UNL1       -0.0523
     36 C           8.4087   -3.0256    0.0000 C.ar    1  UNL1       -0.0159
     37 C           9.2456   -2.5424    0.0000 C.ar    1  UNL1        0.1275
     38 C          10.0824   -0.1266    0.0000 C.2     1  UNL1       -0.0030
     39 C          10.0824   -1.0929    0.0000 C.2     1  UNL1       -0.0371
     40 C           2.0000    0.6979    0.0000 C.ar    1  UNL1       -0.0378
     41 C           3.0156   -0.7051    0.0000 C.ar    1  UNL1       -0.0611
     42 C           2.1028   -0.2968    0.0000 C.ar    1  UNL1       -0.0598
     43 C          10.1116   -4.0424    0.0000 C.3     1  UNL1        0.0788
     44 H           8.0735    0.7210    0.0000 H       1  UNL1        0.0634
     45 H           6.1686   -0.3788    0.0000 H       1  UNL1        0.0757
     46 H           5.4800    0.8300    0.0000 H       1  UNL1        0.0317
     47 H           5.6525    0.0184    0.0000 H       1  UNL1        0.0317
     48 H           6.5388    2.0092    0.0000 H       1  UNL1        0.0466
     49 H           5.8203    1.5944    0.0000 H       1  UNL1        0.0466
     50 H           6.3341    2.8214    0.0000 H       1  UNL1        0.0562
     51 H           8.6467    1.1624    0.0000 H       1  UNL1        0.0597
     52 H           9.7819    0.6675    0.0000 H       1  UNL1        0.1495
     53 H           5.2110    0.9148    0.0000 H       1  UNL1        0.0334
     54 H           5.9392    1.2390    0.0000 H       1  UNL1        0.0334
     55 H           8.4356    1.6520    0.0000 H       1  UNL1        0.0321
     56 H           9.3532    3.6655    0.0000 H       1  UNL1        0.0266
     57 H           8.6630    3.2670    0.0000 H       1  UNL1        0.0266
     58 H           7.7456    2.8089    0.0000 H       1  UNL1        0.0233
     59 H           7.1256    2.1889    0.0000 H       1  UNL1        0.0233
     60 H           7.7456    1.5689    0.0000 H       1  UNL1        0.0233
     61 H           4.6332    3.9545    0.0000 H       1  UNL1        0.0391
     62 H           3.9518    3.4027    0.0000 H       1  UNL1        0.0391
     63 H           4.5036    2.7213    0.0000 H       1  UNL1        0.0391
     64 H           6.6523    3.6780    0.0000 H       1  UNL1        0.0391
     65 H           6.5152    4.5440    0.0000 H       1  UNL1        0.0391
     66 H           5.6492    4.4068    0.0000 H       1  UNL1        0.0391
     67 H           4.1443    3.0426    0.0000 H       1  UNL1        0.0810
     68 H           8.4087   -0.4729    0.0000 H       1  UNL1        0.0661
     69 H           7.0349   -2.8524    0.0000 H       1  UNL1        0.0655
     70 H          10.2456    2.4349    0.0000 H       1  UNL1        0.0230
     71 H          10.8656    3.0549    0.0000 H       1  UNL1        0.0230
     72 H          10.2456    3.6749    0.0000 H       1  UNL1        0.0230
     73 H          11.4562    0.0466    0.0000 H       1  UNL1        0.1543
     74 H           2.4589    2.6890    0.0000 H       1  UNL1        0.1653
     75 H           4.3916   -0.3718    0.0000 H       1  UNL1        0.0624
     76 H           8.4087   -3.6456    0.0000 H       1  UNL1        0.0655
     77 H          10.6194   -0.4366    0.0000 H       1  UNL1        0.0782
     78 H          10.6194   -1.4029    0.0000 H       1  UNL1        0.0637
     79 H           1.4340    0.9511    0.0000 H       1  UNL1        0.0638
     80 H           3.0794   -1.3218    0.0000 H       1  UNL1        0.0618
     81 H           1.6006   -0.6603    0.0000 H       1  UNL1        0.0618
     82 H           9.4916   -4.0424    0.0000 H       1  UNL1        0.0660
     83 H          10.1116   -4.6624    0.0000 H       1  UNL1        0.0660
     84 H          10.7316   -4.0424    0.0000 H       1  UNL1        0.0660
@<TRIPOS>BOND
     1     1    12    1
     2     1    22    1
     3     2    15    2
     4     3    16    2
     5     4    24    2
     6     5    37    1
     7     5    43    1
     8     6    11    1
     9     6    14    1
    10     6    15   am
    11     7    16   am
    12     7    18    1
    13     7    52    1
    14     8    17    1
    15     8    26    1
    16     8    27    1
    17     9    24   am
    18     9    38    1
    19     9    73    1
    20    10    29   ar
    21    10    33   ar
    22    10    74    1
    23    11    12    1
    24    11    16    1
    25    11    44    1
    26    12    13    1
    27    12    45    1
    28    13    14    1
    29    13    46    1
    30    13    47    1
    31    14    48    1
    32    14    49    1
    33    15    17    1
    34    17    19    1
    35    17    50    1
    36    18    20    1
    37    18    24    1
    38    18    51    1
    39    19    21    1
    40    19    53    1
    41    19    54    1
    42    20    23    1
    43    20    25    1
    44    20    55    1
    45    21    28   ar
    46    21    29   ar
    47    22    30   ar
    48    22    31   ar
    49    23    32    1
    50    23    56    1
    51    23    57    1
    52    25    58    1
    53    25    59    1
    54    25    60    1
    55    26    61    1
    56    26    62    1
    57    26    63    1
    58    27    64    1
    59    27    65    1
    60    27    66    1
    61    28    33   ar
    62    28    35   ar
    63    29    67    1
    64    30    34   ar
    65    30    68    1
    66    31    36   ar
    67    31    69    1
    68    32    70    1
    69    32    71    1
    70    32    72    1
    71    33    40   ar
    72    34    37   ar
    73    34    39    1
    74    35    41   ar
    75    35    75    1
    76    36    37   ar
    77    36    76    1
    78    38    39    2
    79    38    77    1
    80    39    78    1
    81    40    42   ar
    82    40    79    1
    83    41    42   ar
    84    41    80    1
    85    42    81    1
    86    43    82    1
    87    43    83    1
    88    43    84    1
