@<TRIPOS>MOLECULE
IMPHY017224
 42 42 0 0 0
SMALL
GASTEIGER

@<TRIPOS>ATOM
      1 O           3.7320   -0.7500    0.0000 O.3     1  UNL1       -0.4643
      2 O           5.4641   -0.7500    0.0000 O.2     1  UNL1       -0.2509
      3 C           6.3301    2.7500    0.0000 C.3     1  UNL1       -0.0531
      4 C           5.4641    2.2500    0.0000 C.3     1  UNL1       -0.0526
      5 C           6.3301    3.7500    0.0000 C.3     1  UNL1       -0.0533
      6 C           5.4641    1.2500    0.0000 C.3     1  UNL1       -0.0430
      7 C           7.1962    4.2500    0.0000 C.3     1  UNL1       -0.0559
      8 C           4.5981    0.7500    0.0000 C.3     1  UNL1        0.0449
      9 C           7.1962    5.2500    0.0000 C.3     1  UNL1       -0.0653
     10 C           4.5981   -0.2500    0.0000 C.2     1  UNL1        0.3071
     11 C           2.8660   -2.2500    0.0000 C.3     1  UNL1        0.0067
     12 C           3.7320   -1.7500    0.0000 C.3     1  UNL1        0.0964
     13 C           2.8660   -3.2500    0.0000 C.ar    1  UNL1       -0.0442
     14 C           3.7320   -3.7500    0.0000 C.ar    1  UNL1       -0.0585
     15 C           2.0000   -3.7500    0.0000 C.ar    1  UNL1       -0.0585
     16 C           3.7320   -4.7500    0.0000 C.ar    1  UNL1       -0.0615
     17 C           2.0000   -4.7500    0.0000 C.ar    1  UNL1       -0.0615
     18 C           2.8660   -5.2500    0.0000 C.ar    1  UNL1       -0.0617
     19 H           5.2520    2.8326    0.0000 H       1  UNL1        0.0265
     20 H           4.8535    2.1423    0.0000 H       1  UNL1        0.0265
     21 H           6.5422    2.1674    0.0000 H       1  UNL1        0.0265
     22 H           6.9407    2.8577    0.0000 H       1  UNL1        0.0265
     23 H           6.1181    4.3326    0.0000 H       1  UNL1        0.0265
     24 H           5.7196    3.6423    0.0000 H       1  UNL1        0.0265
     25 H           5.6762    0.6674    0.0000 H       1  UNL1        0.0270
     26 H           6.0747    1.3577    0.0000 H       1  UNL1        0.0270
     27 H           7.4082    3.6674    0.0000 H       1  UNL1        0.0263
     28 H           7.8067    4.3577    0.0000 H       1  UNL1        0.0263
     29 H           4.3860    1.3326    0.0000 H       1  UNL1        0.0377
     30 H           3.9875    0.6423    0.0000 H       1  UNL1        0.0377
     31 H           7.8162    5.2500    0.0000 H       1  UNL1        0.0230
     32 H           7.1962    5.8700    0.0000 H       1  UNL1        0.0230
     33 H           6.5762    5.2500    0.0000 H       1  UNL1        0.0230
     34 H           2.6540   -1.6674    0.0000 H       1  UNL1        0.0346
     35 H           2.2554   -2.3577    0.0000 H       1  UNL1        0.0346
     36 H           3.9441   -2.3326    0.0000 H       1  UNL1        0.0701
     37 H           4.3426   -1.6423    0.0000 H       1  UNL1        0.0701
     38 H           4.2690   -3.4400    0.0000 H       1  UNL1        0.0620
     39 H           1.4631   -3.4400    0.0000 H       1  UNL1        0.0620
     40 H           4.2690   -5.0600    0.0000 H       1  UNL1        0.0618
     41 H           1.4631   -5.0600    0.0000 H       1  UNL1        0.0618
     42 H           2.8660   -5.8700    0.0000 H       1  UNL1        0.0618
@<TRIPOS>BOND
     1     1    10    1
     2     1    12    1
     3     2    10    2
     4     3     4    1
     5     3     5    1
     6     3    21    1
     7     3    22    1
     8     4     6    1
     9     4    19    1
    10     4    20    1
    11     5     7    1
    12     5    23    1
    13     5    24    1
    14     6     8    1
    15     6    25    1
    16     6    26    1
    17     7     9    1
    18     7    27    1
    19     7    28    1
    20     8    10    1
    21     8    29    1
    22     8    30    1
    23     9    31    1
    24     9    32    1
    25     9    33    1
    26    11    12    1
    27    11    13    1
    28    11    34    1
    29    11    35    1
    30    12    36    1
    31    12    37    1
    32    13    14   ar
    33    13    15   ar
    34    14    16   ar
    35    14    38    1
    36    15    17   ar
    37    15    39    1
    38    16    18   ar
    39    16    40    1
    40    17    18   ar
    41    17    41    1
    42    18    42    1
