@<TRIPOS>MOLECULE
IMPHY012494
 32 31 0 0 0
SMALL
GASTEIGER

@<TRIPOS>ATOM
      1 O           5.4641   -0.4400    0.0000 O.2     1  UNL1       -0.2758
      2 O           2.0000   -3.4400    0.0000 O.3     1  UNL1       -0.4804
      3 O           7.1962    2.5600    0.0000 O.3     1  UNL1       -0.4795
      4 O           3.7320   -3.4400    0.0000 O.2     1  UNL1       -0.2507
      5 OXT         6.3301    4.0600    0.0000 O.2     1  UNL1       -0.2493
      6 N           3.7320   -0.4400    0.0000 N.am    1  UNL1       -0.3145
      7 N           4.5981    3.0600    0.0000 N.3     1  UNL1       -0.3184
      8 C           5.4641    1.5600    0.0000 C.3     1  UNL1       -0.0191
      9 C           4.5981    1.0600    0.0000 C.3     1  UNL1        0.0259
     10 C           2.8660   -1.9400    0.0000 C.3     1  UNL1        0.0689
     11 C           3.7320   -1.4400    0.0000 C.3     1  UNL1        0.0242
     12 CA          5.4641    2.5600    0.0000 C.3     1  UNL1        0.1037
     13 C           4.5981    0.0600    0.0000 C.2     1  UNL1        0.2131
     14 C           2.0000   -1.4400    0.0000 C.3     1  UNL1       -0.0508
     15 C           2.8660   -2.9400    0.0000 C.2     1  UNL1        0.3091
     16 C           6.3301    3.0600    0.0000 C.2     1  UNL1        0.3217
     17 H           5.6762    0.9774    0.0000 H       1  UNL1        0.0290
     18 H           6.0747    1.6677    0.0000 H       1  UNL1        0.0290
     19 H           4.3860    1.6426    0.0000 H       1  UNL1        0.0359
     20 H           3.9875    0.9523    0.0000 H       1  UNL1        0.0359
     21 H           2.8660   -1.3200    0.0000 H       1  UNL1        0.0426
     22 H           3.9441   -2.0226    0.0000 H       1  UNL1        0.0470
     23 H           4.3426   -1.3323    0.0000 H       1  UNL1        0.0470
     24 HA          5.4641    3.1800    0.0000 H       1  UNL1        0.0574
     25 H           3.1951   -0.1300    0.0000 H       1  UNL1        0.1487
     26 H           2.3100   -0.9031    0.0000 H       1  UNL1        0.0238
     27 H           1.4631   -1.1300    0.0000 H       1  UNL1        0.0238
     28 H           1.6900   -1.9769    0.0000 H       1  UNL1        0.0238
     29 H1          4.0611    2.7500    0.0000 H       1  UNL1        0.1190
     30 H2          4.5981    3.6800    0.0000 H       1  UNL1        0.1190
     31 H           2.0000   -4.0600    0.0000 H       1  UNL1        0.2951
     32 H           7.7331    2.8700    0.0000 H       1  UNL1        0.2951
@<TRIPOS>BOND
     1     1    13    2
     2     2    15    1
     3     2    31    1
     4     3    16    1
     5     3    32    1
     6     4    15    2
     7     5    16    2
     8     6    11    1
     9     6    13   am
    10     6    25    1
    11     7    12    1
    12     7    29    1
    13     7    30    1
    14     8     9    1
    15     8    12    1
    16     8    17    1
    17     8    18    1
    18     9    13    1
    19     9    19    1
    20     9    20    1
    21    10    11    1
    22    10    14    1
    23    10    15    1
    24    10    21    1
    25    11    22    1
    26    11    23    1
    27    12    16    1
    28    12    24    1
    29    14    26    1
    30    14    27    1
    31    14    28    1
