@<TRIPOS>MOLECULE
IMPHY003242
 59 61 0 0 0
SMALL
GASTEIGER

@<TRIPOS>ATOM
      1 O           7.7331    0.5000    0.0000 O.3     1  UNL1       -0.3405
      2 O           4.2690   -0.5000    0.0000 O.3     1  UNL1       -0.3405
      3 O           6.0010   -0.5000    0.0000 O.3     1  UNL1       -0.3460
      4 O           6.0010    2.5000    0.0000 O.3     1  UNL1       -0.3865
      5 O           9.4651    0.5000    0.0000 O.3     1  UNL1       -0.3262
      6 O           7.7331    3.5000    0.0000 O.3     1  UNL1       -0.3864
      7 O           6.0010   -2.5000    0.0000 O.3     1  UNL1       -0.3841
      8 O           9.4651    2.5000    0.0000 O.3     1  UNL1       -0.3841
      9 O           4.2690   -3.5000    0.0000 O.3     1  UNL1       -0.3864
     10 O           2.5369   -2.5000    0.0000 O.3     1  UNL1       -0.3865
     11 O           2.5369    0.5000    0.0000 O.3     1  UNL1       -0.3924
     12 N           7.7331   -1.5000    0.0000 N.1     1  UNL1       -0.1935
     13 C           6.8671    1.0000    0.0000 C.3     1  UNL1        0.1134
     14 C           6.8671    2.0000    0.0000 C.3     1  UNL1        0.1119
     15 C           7.7331    2.5000    0.0000 C.3     1  UNL1        0.1141
     16 C           5.1350   -2.0000    0.0000 C.3     1  UNL1        0.1341
     17 C           8.5991    2.0000    0.0000 C.3     1  UNL1        0.1342
     18 C           4.2690   -2.5000    0.0000 C.3     1  UNL1        0.1141
     19 C           5.1350   -1.0000    0.0000 C.3     1  UNL1        0.1880
     20 C           3.4030   -2.0000    0.0000 C.3     1  UNL1        0.1119
     21 C           3.4030   -1.0000    0.0000 C.3     1  UNL1        0.1130
     22 C           8.5991    1.0000    0.0000 C.3     1  UNL1        0.1899
     23 C           6.0010    0.5000    0.0000 C.3     1  UNL1        0.0796
     24 C           2.5369   -0.5000    0.0000 C.3     1  UNL1        0.0730
     25 C           9.4651   -0.5000    0.0000 C.3     1  UNL1        0.1722
     26 C          10.3312   -1.0000    0.0000 C.ar    1  UNL1       -0.0049
     27 C           8.5991   -1.0000    0.0000 C.1     1  UNL1        0.0992
     28 C          10.3312   -2.0000    0.0000 C.ar    1  UNL1       -0.0551
     29 C          11.1972   -0.5000    0.0000 C.ar    1  UNL1       -0.0551
     30 C          11.1972   -2.5000    0.0000 C.ar    1  UNL1       -0.0614
     31 C          12.0632   -1.0000    0.0000 C.ar    1  UNL1       -0.0614
     32 C          12.0632   -2.0000    0.0000 C.ar    1  UNL1       -0.0617
     33 H           6.8671    0.3800    0.0000 H       1  UNL1        0.0647
     34 H           6.3301    1.6900    0.0000 H       1  UNL1        0.0647
     35 H           7.1962    2.8100    0.0000 H       1  UNL1        0.0648
     36 H           5.1350   -2.6200    0.0000 H       1  UNL1        0.0671
     37 H           8.5991    2.6200    0.0000 H       1  UNL1        0.0671
     38 H           3.7320   -2.8100    0.0000 H       1  UNL1        0.0648
     39 H           5.1350   -0.3800    0.0000 H       1  UNL1        0.0937
     40 H           2.8660   -1.6900    0.0000 H       1  UNL1        0.0647
     41 H           3.4030   -0.3800    0.0000 H       1  UNL1        0.0647
     42 H           8.5991    0.3800    0.0000 H       1  UNL1        0.0938
     43 H           5.7890    1.0826    0.0000 H       1  UNL1        0.0587
     44 H           5.3905    0.3923    0.0000 H       1  UNL1        0.0587
     45 H           1.9264   -0.3923    0.0000 H       1  UNL1        0.0584
     46 H           2.3249   -1.0826    0.0000 H       1  UNL1        0.0584
     47 H           6.0010    3.1200    0.0000 H       1  UNL1        0.2100
     48 H           8.2700    3.8100    0.0000 H       1  UNL1        0.2100
     49 H           6.5380   -2.1900    0.0000 H       1  UNL1        0.2101
     50 H          10.0021    2.1900    0.0000 H       1  UNL1        0.2101
     51 H           3.7320   -3.8100    0.0000 H       1  UNL1        0.2100
     52 H           2.0000   -2.1900    0.0000 H       1  UNL1        0.2100
     53 H          10.0021   -0.1900    0.0000 H       1  UNL1        0.0808
     54 H           2.0000    0.8100    0.0000 H       1  UNL1        0.2095
     55 H           9.7942   -2.3100    0.0000 H       1  UNL1        0.0621
     56 H          11.1972    0.1200    0.0000 H       1  UNL1        0.0621
     57 H          11.1972   -3.1200    0.0000 H       1  UNL1        0.0618
     58 H          12.6002   -0.6900    0.0000 H       1  UNL1        0.0618
     59 H          12.6002   -2.3100    0.0000 H       1  UNL1        0.0618
@<TRIPOS>BOND
     1     1    13    1
     2     1    22    1
     3     2    19    1
     4     2    21    1
     5    19     3    1
     6     3    23    1
     7    14     4    1
     8     4    47    1
     9    22     5    1
    10     5    25    1
    11    15     6    1
    12     6    48    1
    13    16     7    1
    14     7    49    1
    15    17     8    1
    16     8    50    1
    17    18     9    1
    18     9    51    1
    19    20    10    1
    20    10    52    1
    21    11    24    1
    22    11    54    1
    23    12    27    3
    24    13    14    1
    25    13    23    1
    26    13    33    1
    27    14    15    1
    28    14    34    1
    29    15    17    1
    30    15    35    1
    31    16    18    1
    32    16    19    1
    33    16    36    1
    34    17    22    1
    35    17    37    1
    36    18    20    1
    37    18    38    1
    38    19    39    1
    39    20    21    1
    40    20    40    1
    41    21    24    1
    42    21    41    1
    43    22    42    1
    44    23    43    1
    45    23    44    1
    46    24    45    1
    47    24    46    1
    48    25    26    1
    49    25    27    1
    50    25    53    1
    51    26    28   ar
    52    26    29   ar
    53    28    30   ar
    54    28    55    1
    55    29    31   ar
    56    29    56    1
    57    30    32   ar
    58    30    57    1
    59    31    32   ar
    60    31    58    1
    61    32    59    1
