@<TRIPOS>MOLECULE
IMPHY011834
 83 87 0 0 0
SMALL
GASTEIGER

@<TRIPOS>ATOM
      1 O           2.5357   -1.8922    0.0000 O.3     1  UNL1       -0.3881
      2 O           2.5519    0.1994    0.0000 O.3     1  UNL1       -0.3892
      3 O           7.9222    3.2627    0.0000 O.3     1  UNL1       -0.3906
      4 O           4.3500   -3.6701    0.0000 O.3     1  UNL1       -0.4802
      5 O          11.4608    1.1943    0.0000 O.3     1  UNL1       -0.4802
      6 O           2.8467   -2.8098    0.0000 O.2     1  UNL1       -0.2503
      7 O          10.6064   -0.3123    0.0000 O.2     1  UNL1       -0.2504
      8 C           7.0628   -0.3398    0.0000 C.3     1  UNL1       -0.0194
      9 C           6.1968    0.1601    0.0000 C.3     1  UNL1       -0.0256
     10 C           5.2868   -0.3467    0.0000 C.3     1  UNL1       -0.0221
     11 C           7.9288    0.1601    0.0000 C.3     1  UNL1       -0.0050
     12 C           5.2787   -1.3883    0.0000 C.3     1  UNL1       -0.0173
     13 C           7.0789   -1.3814    0.0000 C.3     1  UNL1       -0.0463
     14 C           7.9288    1.1602    0.0000 C.2     1  UNL1       -0.0604
     15 C           6.1808   -1.9091    0.0000 C.3     1  UNL1       -0.0481
     16 C           8.8228    1.6948    0.0000 C.3     1  UNL1        0.0229
     17 C           4.3433   -1.9380    0.0000 C.3     1  UNL1        0.0962
     18 C           6.1968    1.1602    0.0000 C.3     1  UNL1       -0.0306
     19 C           8.8228   -0.3745    0.0000 C.3     1  UNL1       -0.0424
     20 C           9.7288    1.1810    0.0000 C.3     1  UNL1        0.0765
     21 C           4.3599    0.2174    0.0000 C.3     1  UNL1       -0.0184
     22 C           9.7288    0.1393    0.0000 C.3     1  UNL1       -0.0358
     23 C           7.7056   -1.1059    0.0000 C.3     1  UNL1       -0.0585
     24 C           7.0628    1.6602    0.0000 C.2     1  UNL1       -0.0836
     25 C           5.2945    0.6533    0.0000 C.3     1  UNL1       -0.0589
     26 C           3.4037   -1.3955    0.0000 C.3     1  UNL1        0.0967
     27 C           3.4120   -0.3106    0.0000 C.3     1  UNL1        0.0826
     28 C           8.2709   -0.7795    0.0000 C.3     1  UNL1       -0.0553
     29 C           8.7977    2.7795    0.0000 C.3     1  UNL1        0.0678
     30 C          10.6726    1.7162    0.0000 C.3     1  UNL1       -0.0360
     31 C           9.7288    3.3364    0.0000 C.3     1  UNL1       -0.0083
     32 C          10.6726    2.8012    0.0000 C.3     1  UNL1       -0.0445
     33 C           4.8466   -2.8021    0.0000 C.3     1  UNL1       -0.0466
     34 C           3.8467   -2.8060    0.0000 C.2     1  UNL1        0.3135
     35 C          10.5987    0.6877    0.0000 C.2     1  UNL1        0.3116
     36 C          10.2188    4.2082    0.0000 C.3     1  UNL1       -0.0574
     37 C           9.2188    4.1966    0.0000 C.3     1  UNL1       -0.0574
     38 H           6.9329    0.5851    0.0000 H       1  UNL1        0.0315
     39 H           5.2820   -2.2383    0.0000 H       1  UNL1        0.0317
     40 H           7.2969   -1.9618    0.0000 H       1  UNL1        0.0271
     41 H           7.6880   -1.2659    0.0000 H       1  UNL1        0.0271
     42 H           5.7835   -2.3851    0.0000 H       1  UNL1        0.0269
     43 H           6.5818   -2.3820    0.0000 H       1  UNL1        0.0269
     44 H           8.0786    2.1056    0.0000 H       1  UNL1        0.0382
     45 H           5.9847    1.7428    0.0000 H       1  UNL1        0.0310
     46 H           5.5862    1.0525    0.0000 H       1  UNL1        0.0310
     47 H           8.4182   -0.8443    0.0000 H       1  UNL1        0.0274
     48 H           9.2164   -0.8535    0.0000 H       1  UNL1        0.0274
     49 H           4.7681    0.6840    0.0000 H       1  UNL1        0.0296
     50 H           3.9700    0.6994    0.0000 H       1  UNL1        0.0296
     51 H           9.9379   -0.4444    0.0000 H       1  UNL1        0.0276
     52 H          10.3397    0.2454    0.0000 H       1  UNL1        0.0276
     53 H           7.2306   -1.5044    0.0000 H       1  UNL1        0.0235
     54 H           8.1041   -1.5808    0.0000 H       1  UNL1        0.0235
     55 H           8.1805   -0.7074    0.0000 H       1  UNL1        0.0235
     56 H           7.0628    2.2802    0.0000 H       1  UNL1        0.0572
     57 H           5.9145    0.6485    0.0000 H       1  UNL1        0.0235
     58 H           5.2993    1.2733    0.0000 H       1  UNL1        0.0235
     59 H           4.6745    0.6581    0.0000 H       1  UNL1        0.0235
     60 H           3.4025   -2.0155    0.0000 H       1  UNL1        0.0630
     61 H           2.8722   -0.6154    0.0000 H       1  UNL1        0.0619
     62 H           7.6884   -0.9916    0.0000 H       1  UNL1        0.0238
     63 H           8.4830   -1.3621    0.0000 H       1  UNL1        0.0238
     64 H           8.8535   -0.5674    0.0000 H       1  UNL1        0.0238
     65 H           8.2674    2.4582    0.0000 H       1  UNL1        0.0605
     66 H          10.8817    1.1325    0.0000 H       1  UNL1        0.0276
     67 H          11.2835    1.8223    0.0000 H       1  UNL1        0.0276
     68 H          11.2835    2.6951    0.0000 H       1  UNL1        0.0272
     69 H          10.8817    3.3849    0.0000 H       1  UNL1        0.0272
     70 H           4.3109   -3.1142    0.0000 H       1  UNL1        0.0241
     71 H           5.1587   -3.3378    0.0000 H       1  UNL1        0.0241
     72 H           5.3824   -2.4900    0.0000 H       1  UNL1        0.0241
     73 H           9.7522    4.5128    0.0000 H       1  UNL1        0.0236
     74 H           8.9027    4.7299    0.0000 H       1  UNL1        0.0236
     75 H           8.6855    3.8804    0.0000 H       1  UNL1        0.0236
     76 H          10.7593    3.9044    0.0000 H       1  UNL1        0.0236
     77 H          10.5226    4.7487    0.0000 H       1  UNL1        0.0236
     78 H           9.6783    4.5120    0.0000 H       1  UNL1        0.0236
     79 H           2.0000   -1.5801    0.0000 H       1  UNL1        0.2099
     80 H           2.5590    0.8194    0.0000 H       1  UNL1        0.2099
     81 H           7.9102    3.8826    0.0000 H       1  UNL1        0.2098
     82 H           4.0421   -4.2082    0.0000 H       1  UNL1        0.2951
     83 H          12.0001    0.8885    0.0000 H       1  UNL1        0.2951
@<TRIPOS>BOND
     1    26     1    1
     2     1    79    1
     3    27     2    1
     4     2    80    1
     5    29     3    1
     6     3    81    1
     7     4    34    1
     8     4    82    1
     9     5    35    1
    10     5    83    1
    11     6    34    2
    12     7    35    2
    13     8     9    1
    14     8    11    1
    15     8    13    1
    16     8    23    1
    17     9    10    1
    18     9    18    1
    19     9    38    1
    20    10    12    1
    21    10    21    1
    22    10    25    1
    23    11    14    1
    24    11    19    1
    25    11    28    1
    26    12    15    1
    27    12    17    1
    28    12    39    1
    29    13    15    1
    30    13    40    1
    31    13    41    1
    32    14    16    1
    33    14    24    2
    34    15    42    1
    35    15    43    1
    36    16    20    1
    37    16    29    1
    38    16    44    1
    39    17    26    1
    40    17    33    1
    41    17    34    1
    42    18    24    1
    43    18    45    1
    44    18    46    1
    45    19    22    1
    46    19    47    1
    47    19    48    1
    48    20    22    1
    49    20    30    1
    50    20    35    1
    51    21    27    1
    52    21    49    1
    53    21    50    1
    54    22    51    1
    55    22    52    1
    56    23    53    1
    57    23    54    1
    58    23    55    1
    59    24    56    1
    60    25    57    1
    61    25    58    1
    62    25    59    1
    63    26    27    1
    64    26    60    1
    65    27    61    1
    66    28    62    1
    67    28    63    1
    68    28    64    1
    69    29    31    1
    70    29    65    1
    71    30    32    1
    72    30    66    1
    73    30    67    1
    74    31    32    1
    75    31    36    1
    76    31    37    1
    77    32    68    1
    78    32    69    1
    79    33    70    1
    80    33    71    1
    81    33    72    1
    82    36    76    1
    83    36    77    1
    84    36    78    1
    85    37    73    1
    86    37    74    1
    87    37    75    1
