@<TRIPOS>MOLECULE
IMPHY002408
 54 59 0 0 0
SMALL
GASTEIGER

@<TRIPOS>ATOM
      1 O           3.2360    3.2494    0.0000 O.3     1  UNL1       -0.3472
      2 O           2.5452    2.0937    0.0000 O.3     1  UNL1       -0.3666
      3 O           2.0000    0.6366    0.0000 O.2     1  UNL1       -0.2755
      4 O           3.8538   -3.3218    0.0000 O.3     1  UNL1       -0.4951
      5 N           7.1357    0.7373    0.0000 N.3     1  UNL1       -0.2946
      6 N           3.6948    0.2794    0.0000 N.am    1  UNL1       -0.2668
      7 C           5.2979    0.4465    0.0000 C.3     1  UNL1        0.0336
      8 C           6.1639    0.9465    0.0000 C.3     1  UNL1        0.0227
      9 C           4.4318    0.9465    0.0000 C.3     1  UNL1        0.0502
     10 C           4.4318    1.9465    0.0000 C.3     1  UNL1        0.0364
     11 C           5.2979    2.4465    0.0000 C.3     1  UNL1       -0.0080
     12 C           6.1639    1.9465    0.0000 C.3     1  UNL1       -0.0294
     13 C           5.9650   -0.2905    0.0000 C.3     1  UNL1       -0.0273
     14 C           7.0558   -0.0684    0.0000 C.3     1  UNL1        0.0004
     15 C           5.0887   -0.5253    0.0000 C.ar    1  UNL1       -0.0162
     16 C           5.4375    3.4173    0.0000 C.2     1  UNL1       -0.0537
     17 C           7.0603    2.5676    0.0000 C.3     1  UNL1        0.0207
     18 C           4.0999   -0.6283    0.0000 C.ar    1  UNL1        0.0439
     19 C           3.5213    2.3110    0.0000 C.3     1  UNL1        0.1616
     20 C           5.7094   -1.3540    0.0000 C.ar    1  UNL1       -0.0527
     21 C           4.7675    4.1336    0.0000 C.2     1  UNL1       -0.0579
     22 C           2.7443   -0.0312    0.0000 C.2     1  UNL1        0.2170
     23 C           3.6634   -1.5673    0.0000 C.ar    1  UNL1        0.0018
     24 C           3.7896    4.0590    0.0000 C.3     1  UNL1        0.0691
     25 C           5.2947   -2.3029    0.0000 C.ar    1  UNL1       -0.0196
     26 C           4.2648   -2.4102    0.0000 C.ar    1  UNL1        0.1219
     27 C           2.5380   -1.0097    0.0000 C.3     1  UNL1        0.0127
     28 C           4.4378   -4.1336    0.0000 C.3     1  UNL1        0.0788
     29 H           6.9000    1.3715    0.0000 H       1  UNL1        0.0472
     30 H           3.5818    0.9465    0.0000 H       1  UNL1        0.0518
     31 H           3.6957    1.5215    0.0000 H       1  UNL1        0.0374
     32 H           6.0340    2.8715    0.0000 H       1  UNL1        0.0351
     33 H           6.7745    1.8389    0.0000 H       1  UNL1        0.0286
     34 H           6.3759    2.5291    0.0000 H       1  UNL1        0.0286
     35 H           5.4388   -0.6184    0.0000 H       1  UNL1        0.0287
     36 H           6.1944   -0.8665    0.0000 H       1  UNL1        0.0287
     37 H           7.1182   -0.6852    0.0000 H       1  UNL1        0.0427
     38 H           7.6758   -0.0678    0.0000 H       1  UNL1        0.0427
     39 H           7.6748    2.4851    0.0000 H       1  UNL1        0.0473
     40 H           7.2481    3.1584    0.0000 H       1  UNL1        0.0473
     41 H           3.4712    1.6930    0.0000 H       1  UNL1        0.0911
     42 H           6.3253   -1.2826    0.0000 H       1  UNL1        0.0622
     43 H           4.9925    4.7114    0.0000 H       1  UNL1        0.0595
     44 H           3.0461   -1.6244    0.0000 H       1  UNL1        0.0673
     45 H           3.8817    4.6721    0.0000 H       1  UNL1        0.0605
     46 H           3.2125    4.2858    0.0000 H       1  UNL1        0.0605
     47 H           2.1259    2.5505    0.0000 H       1  UNL1        0.2125
     48 H           5.6607   -2.8034    0.0000 H       1  UNL1        0.0654
     49 H           1.9314   -0.8818    0.0000 H       1  UNL1        0.0323
     50 H           2.4101   -1.6164    0.0000 H       1  UNL1        0.0323
     51 H           3.1447   -1.1376    0.0000 H       1  UNL1        0.0323
     52 H           3.9345   -4.4957    0.0000 H       1  UNL1        0.0660
     53 H           4.7998   -4.6369    0.0000 H       1  UNL1        0.0660
     54 H           4.9411   -3.7715    0.0000 H       1  UNL1        0.0660
@<TRIPOS>BOND
     1     1    19    1
     2     1    24    1
     3    19     2    1
     4     2    47    1
     5     3    22    2
     6     4    26    1
     7     4    28    1
     8     5     8    1
     9     5    14    1
    10     5    17    1
    11     6     9    1
    12     6    18    1
    13     6    22   am
    14     7     8    1
    15     7     9    1
    16     7    13    1
    17     7    15    1
    18     8    12    1
    19     8    29    1
    20     9    10    1
    21     9    30    1
    22    10    11    1
    23    10    19    1
    24    10    31    1
    25    11    12    1
    26    11    16    1
    27    11    32    1
    28    12    33    1
    29    12    34    1
    30    13    14    1
    31    13    35    1
    32    13    36    1
    33    14    37    1
    34    14    38    1
    35    15    18   ar
    36    15    20   ar
    37    16    17    1
    38    16    21    2
    39    17    39    1
    40    17    40    1
    41    18    23   ar
    42    19    41    1
    43    20    25   ar
    44    20    42    1
    45    21    24    1
    46    21    43    1
    47    22    27    1
    48    23    26   ar
    49    23    44    1
    50    24    45    1
    51    24    46    1
    52    25    26   ar
    53    25    48    1
    54    27    49    1
    55    27    50    1
    56    27    51    1
    57    28    52    1
    58    28    53    1
    59    28    54    1
