@<TRIPOS>MOLECULE
IMPHY008737
 41 44 0 0 0
SMALL
GASTEIGER

@<TRIPOS>ATOM
      1 O           6.6498    1.9620    0.0000 O.2     1  UNL1       -0.2679
      2 O           8.3374    1.4026    0.0000 O.2     1  UNL1       -0.2695
      3 N           7.0547    0.2387    0.0000 N.am    1  UNL1       -0.2326
      4 N           4.5274    1.3630    0.0000 N.ar    1  UNL1       -0.3503
      5 N           9.9867    0.8738    0.0000 N.pl3   1  UNL1       -0.3463
      6 C           5.0274   -0.1759    0.0000 C.ar    1  UNL1       -0.0084
      7 C           5.7123   -0.9606    0.0000 C.3     1  UNL1       -0.0086
      8 C           5.3364    0.7752    0.0000 C.ar    1  UNL1        0.1067
      9 C           6.7328   -0.7519    0.0000 C.3     1  UNL1        0.0271
     10 C           4.0274   -0.1759    0.0000 C.ar    1  UNL1        0.0036
     11 C           3.7183    0.7752    0.0000 C.ar    1  UNL1        0.0473
     12 C           6.3518    1.0074    0.0000 C.2     1  UNL1        0.2697
     13 C           3.3424   -0.9606    0.0000 C.ar    1  UNL1       -0.0523
     14 C           8.0321    0.4504    0.0000 C.2     1  UNL1        0.2549
     15 C           2.7029    1.0074    0.0000 C.ar    1  UNL1       -0.0378
     16 C           8.7040   -0.2902    0.0000 C.ar    1  UNL1        0.0581
     17 C           2.3219   -0.7519    0.0000 C.ar    1  UNL1       -0.0611
     18 C           2.0000    0.2387    0.0000 C.ar    1  UNL1       -0.0598
     19 C           9.6814   -0.0785    0.0000 C.ar    1  UNL1        0.0391
     20 C           8.3987   -1.2424    0.0000 C.ar    1  UNL1       -0.0478
     21 C          10.3534   -0.8190    0.0000 C.ar    1  UNL1       -0.0401
     22 C           9.0707   -1.9830    0.0000 C.ar    1  UNL1       -0.0609
     23 C          10.0480   -1.7713    0.0000 C.ar    1  UNL1       -0.0600
     24 C          10.9641    1.0854    0.0000 C.3     1  UNL1       -0.0024
     25 H           5.1824   -1.2824    0.0000 H       1  UNL1        0.0329
     26 H           5.9387   -1.5378    0.0000 H       1  UNL1        0.0329
     27 H           6.7513   -1.3716    0.0000 H       1  UNL1        0.0473
     28 H           7.3466   -0.8398    0.0000 H       1  UNL1        0.0473
     29 H           4.5274    1.9830    0.0000 H       1  UNL1        0.1660
     30 H           3.5408   -1.5480    0.0000 H       1  UNL1        0.0624
     31 H           2.5182    1.5992    0.0000 H       1  UNL1        0.0638
     32 H           1.9088   -1.2143    0.0000 H       1  UNL1        0.0618
     33 H           1.3940    0.3700    0.0000 H       1  UNL1        0.0618
     34 H           7.7928   -1.3736    0.0000 H       1  UNL1        0.0626
     35 H          10.9593   -0.6878    0.0000 H       1  UNL1        0.0636
     36 H           8.8814   -2.5733    0.0000 H       1  UNL1        0.0618
     37 H           9.5701    1.3329    0.0000 H       1  UNL1        0.1458
     38 H          10.4647   -2.2304    0.0000 H       1  UNL1        0.0618
     39 H          11.0953    0.4795    0.0000 H       1  UNL1        0.0425
     40 H          11.5700    1.2167    0.0000 H       1  UNL1        0.0425
     41 H          10.8328    1.6914    0.0000 H       1  UNL1        0.0425
@<TRIPOS>BOND
     1     1    12    2
     2     2    14    2
     3     3     9    1
     4     3    12   am
     5     3    14   am
     6     4     8   ar
     7     4    11   ar
     8     4    29    1
     9     5    19    1
    10     5    24    1
    11     5    37    1
    12     6     7    1
    13     6     8   ar
    14     6    10   ar
    15     7     9    1
    16     7    25    1
    17     7    26    1
    18     8    12    1
    19     9    27    1
    20     9    28    1
    21    10    11   ar
    22    10    13   ar
    23    11    15   ar
    24    13    17   ar
    25    13    30    1
    26    14    16    1
    27    15    18   ar
    28    15    31    1
    29    16    19   ar
    30    16    20   ar
    31    17    18   ar
    32    17    32    1
    33    18    33    1
    34    19    21   ar
    35    20    22   ar
    36    20    34    1
    37    21    23   ar
    38    21    35    1
    39    22    23   ar
    40    22    36    1
    41    23    38    1
    42    24    39    1
    43    24    40    1
    44    24    41    1
