@<TRIPOS>MOLECULE
IMPHY000782
 34 37 0 0 0
SMALL
GASTEIGER

@<TRIPOS>ATOM
      1 O           6.0682   -0.2673    0.0000 O.3     1  UNL1       -0.4838
      2 O          10.4786    0.0374    0.0000 O.3     1  UNL1       -0.4526
      3 O          10.4786   -1.5721    0.0000 O.3     1  UNL1       -0.4526
      4 O           2.5381   -0.2915    0.0000 O.3     1  UNL1       -0.5066
      5 C           6.9343    0.2327    0.0000 C.3     1  UNL1        0.1256
      6 C           6.9343    1.2327    0.0000 C.3     1  UNL1       -0.0074
      7 C           6.0682    1.7327    0.0000 C.3     1  UNL1       -0.0206
      8 C           7.8003   -0.2673    0.0000 C.ar    1  UNL1       -0.0037
      9 C           5.2022    1.2327    0.0000 C.ar    1  UNL1       -0.0053
     10 C           5.2022    0.2327    0.0000 C.ar    1  UNL1        0.1280
     11 C           8.6663    0.2327    0.0000 C.ar    1  UNL1       -0.0095
     12 C           7.8003   -1.2673    0.0000 C.ar    1  UNL1       -0.0514
     13 C           4.3083    1.7673    0.0000 C.ar    1  UNL1       -0.0517
     14 C           9.5323   -0.2673    0.0000 C.ar    1  UNL1        0.1666
     15 C           4.3083   -0.3020    0.0000 C.ar    1  UNL1        0.0218
     16 C           9.5323   -1.2673    0.0000 C.ar    1  UNL1        0.1662
     17 C           8.6663   -1.7673    0.0000 C.ar    1  UNL1       -0.0158
     18 C           3.4022    1.2535    0.0000 C.ar    1  UNL1       -0.0197
     19 C           3.4022    0.2119    0.0000 C.ar    1  UNL1        0.1203
     20 C          11.0622   -0.7673    0.0000 C.3     1  UNL1        0.2332
     21 H           6.9343   -0.3873    0.0000 H       1  UNL1        0.0784
     22 H           7.5449    1.1250    0.0000 H       1  UNL1        0.0307
     23 H           7.1463    1.8153    0.0000 H       1  UNL1        0.0307
     24 H           6.4668    2.2076    0.0000 H       1  UNL1        0.0316
     25 H           5.6697    2.2076    0.0000 H       1  UNL1        0.0316
     26 H           8.6663    0.8527    0.0000 H       1  UNL1        0.0659
     27 H           7.2634   -1.5773    0.0000 H       1  UNL1        0.0623
     28 H           4.3154    2.3873    0.0000 H       1  UNL1        0.0623
     29 H           4.3154   -0.9220    0.0000 H       1  UNL1        0.0691
     30 H           8.6663   -2.3873    0.0000 H       1  UNL1        0.0655
     31 H           2.8665    1.5656    0.0000 H       1  UNL1        0.0654
     32 H          11.5231   -1.1821    0.0000 H       1  UNL1        0.1166
     33 H          11.5231   -0.3526    0.0000 H       1  UNL1        0.1166
     34 H           2.0000    0.0164    0.0000 H       1  UNL1        0.2921
@<TRIPOS>BOND
     1     1     5    1
     2     1    10    1
     3     2    14    1
     4     2    20    1
     5     3    16    1
     6     3    20    1
     7     4    19    1
     8     4    34    1
     9     5     6    1
    10     5     8    1
    11     5    21    1
    12     6     7    1
    13     6    22    1
    14     6    23    1
    15     7     9    1
    16     7    24    1
    17     7    25    1
    18     8    11   ar
    19     8    12   ar
    20     9    10   ar
    21     9    13   ar
    22    10    15   ar
    23    11    14   ar
    24    11    26    1
    25    12    17   ar
    26    12    27    1
    27    13    18   ar
    28    13    28    1
    29    14    16   ar
    30    15    19   ar
    31    15    29    1
    32    16    17   ar
    33    17    30    1
    34    18    19   ar
    35    18    31    1
    36    20    32    1
    37    20    33    1
