@<TRIPOS>MOLECULE
IMPHY006366
 48 51 0 0 0
SMALL
GASTEIGER

@<TRIPOS>ATOM
      1 O           3.9061   -1.6074    0.0000 O.3     1  UNL1       -0.4814
      2 O           7.4260   -1.6074    0.0000 O.2     1  UNL1       -0.4213
      3 O           5.6660    1.4273    0.0000 O.3     1  UNL1       -0.4936
      4 O           7.4144    1.4619    0.0000 O.3     1  UNL1       -0.5051
      5 O           9.1962   -1.5969    0.0000 O.2     1  UNL1       -0.2444
      6 O          11.7884    1.9615    0.0000 O.3     1  UNL1       -0.4951
      7 C           3.0000   -1.0935    0.0000 C.3     1  UNL1        0.1235
      8 C           4.8000   -0.0727    0.0000 C.ar    1  UNL1        0.0591
      9 C           4.8000   -1.0727    0.0000 C.ar    1  UNL1        0.1359
     10 C           3.0000   -0.0519    0.0000 C.2     1  UNL1       -0.0408
     11 C           6.5320   -0.0727    0.0000 C.ar    1  UNL1        0.1019
     12 C           5.6660    0.4273    0.0000 C.ar    1  UNL1        0.1449
     13 C           3.9061    0.4620    0.0000 C.2     1  UNL1       -0.0478
     14 C           2.0000   -1.0974    0.0000 C.3     1  UNL1       -0.0215
     15 C           2.5033   -1.9615    0.0000 C.3     1  UNL1       -0.0215
     16 C           6.5320   -1.0727    0.0000 C.ar    1  UNL1        0.1496
     17 C           5.6660   -1.5727    0.0000 C.ar    1  UNL1        0.0241
     18 C           7.4260    0.4620    0.0000 C.ar    1  UNL1        0.1456
     19 C           8.3321   -0.0519    0.0000 C.ar    1  UNL1        0.1086
     20 C           8.3321   -1.0935    0.0000 C.ar    1  UNL1        0.3486
     21 C           9.1962    0.4515    0.0000 C.ar    1  UNL1       -0.0072
     22 C          10.0641   -0.0452    0.0000 C.ar    1  UNL1       -0.0502
     23 C           9.1923    1.4514    0.0000 C.ar    1  UNL1       -0.0502
     24 C           4.8000    1.9273    0.0000 C.3     1  UNL1        0.0788
     25 C          10.9282    0.4581    0.0000 C.ar    1  UNL1       -0.0194
     26 C          10.0564    1.9548    0.0000 C.ar    1  UNL1       -0.0194
     27 C          10.9243    1.4581    0.0000 C.ar    1  UNL1        0.1201
     28 C          12.6564    1.4648    0.0000 C.3     1  UNL1        0.0788
     29 H           2.4643    0.2602    0.0000 H       1  UNL1        0.0611
     30 H           3.9132    1.0819    0.0000 H       1  UNL1        0.0624
     31 H           1.9976   -0.4774    0.0000 H       1  UNL1        0.0271
     32 H           1.9652   -1.6535    0.0000 H       1  UNL1        0.0271
     33 H           2.1954   -2.4996    0.0000 H       1  UNL1        0.0271
     34 H           3.0415   -2.2694    0.0000 H       1  UNL1        0.0271
     35 H           1.3800   -1.0998    0.0000 H       1  UNL1        0.0271
     36 H           2.0024   -1.7174    0.0000 H       1  UNL1        0.0271
     37 H           5.6660   -2.1927    0.0000 H       1  UNL1        0.0691
     38 H          10.0665   -0.6652    0.0000 H       1  UNL1        0.0625
     39 H           8.6542    1.7594    0.0000 H       1  UNL1        0.0625
     40 H           7.9478    1.7781    0.0000 H       1  UNL1        0.2922
     41 H           5.1100    2.4642    0.0000 H       1  UNL1        0.0660
     42 H           4.2631    2.2373    0.0000 H       1  UNL1        0.0660
     43 H           4.4900    1.3904    0.0000 H       1  UNL1        0.0660
     44 H          11.4663    0.1502    0.0000 H       1  UNL1        0.0654
     45 H          10.0540    2.5748    0.0000 H       1  UNL1        0.0654
     46 H          12.3484    0.9267    0.0000 H       1  UNL1        0.0660
     47 H          13.1945    1.1569    0.0000 H       1  UNL1        0.0660
     48 H          12.9643    2.0029    0.0000 H       1  UNL1        0.0660
@<TRIPOS>BOND
     1     1     7    1
     2     1     9    1
     3     2    16   ar
     4     2    20   ar
     5     3    12    1
     6     3    24    1
     7     4    18    1
     8     4    40    1
     9     5    20    2
    10     6    27    1
    11     6    28    1
    12     7    10    1
    13     7    14    1
    14     7    15    1
    15     8     9   ar
    16     8    12   ar
    17     8    13    1
    18     9    17   ar
    19    10    13    2
    20    10    29    1
    21    11    12   ar
    22    11    16   ar
    23    11    18   ar
    24    13    30    1
    25    14    31    1
    26    14    35    1
    27    14    36    1
    28    15    32    1
    29    15    33    1
    30    15    34    1
    31    16    17   ar
    32    17    37    1
    33    18    19   ar
    34    19    20   ar
    35    19    21    1
    36    21    22   ar
    37    21    23   ar
    38    22    25   ar
    39    22    38    1
    40    23    26   ar
    41    23    39    1
    42    24    41    1
    43    24    42    1
    44    24    43    1
    45    25    27   ar
    46    25    44    1
    47    26    27   ar
    48    26    45    1
    49    28    46    1
    50    28    47    1
    51    28    48    1
