@<TRIPOS>MOLECULE
IMPHY006810
 35 37 0 0 0
SMALL
GASTEIGER

@<TRIPOS>ATOM
      1 O           6.0682   -0.2704    0.0000 O.3     1  UNL1       -0.4835
      2 O           6.0682    2.7296    0.0000 O.3     1  UNL1       -0.3868
      3 O           4.3198    2.7642    0.0000 O.3     1  UNL1       -0.5062
      4 O           2.5381   -0.2945    0.0000 O.3     1  UNL1       -0.5065
      5 O           8.6663   -2.7704    0.0000 O.3     1  UNL1       -0.5033
      6 O          10.3984   -1.7704    0.0000 O.3     1  UNL1       -0.5033
      7 C           6.9343    0.2296    0.0000 C.3     1  UNL1        0.1279
      8 C           6.9343    1.2296    0.0000 C.3     1  UNL1        0.0190
      9 C           6.0682    1.7296    0.0000 C.3     1  UNL1        0.0907
     10 C           5.2022    1.2296    0.0000 C.ar    1  UNL1        0.0641
     11 C           5.2022    0.2296    0.0000 C.ar    1  UNL1        0.1340
     12 C           7.8003   -0.2704    0.0000 C.ar    1  UNL1       -0.0036
     13 C           4.3083    1.7643    0.0000 C.ar    1  UNL1        0.1294
     14 C           4.3083   -0.3051    0.0000 C.ar    1  UNL1        0.0222
     15 C           7.8003   -1.2704    0.0000 C.ar    1  UNL1       -0.0099
     16 C           8.6663    0.2296    0.0000 C.ar    1  UNL1       -0.0514
     17 C           3.4022    1.2504    0.0000 C.ar    1  UNL1        0.0219
     18 C           3.4022    0.2088    0.0000 C.ar    1  UNL1        0.1238
     19 C           8.6663   -1.7704    0.0000 C.ar    1  UNL1        0.1586
     20 C           9.5323   -0.2704    0.0000 C.ar    1  UNL1       -0.0162
     21 C           9.5323   -1.2704    0.0000 C.ar    1  UNL1        0.1582
     22 H           6.9343   -0.3904    0.0000 H       1  UNL1        0.0785
     23 H           7.5449    1.1220    0.0000 H       1  UNL1        0.0333
     24 H           7.1463    1.8122    0.0000 H       1  UNL1        0.0333
     25 H           6.6052    2.0396    0.0000 H       1  UNL1        0.0647
     26 H           4.3154   -0.9250    0.0000 H       1  UNL1        0.0691
     27 H           7.2634   -1.5804    0.0000 H       1  UNL1        0.0659
     28 H           8.6663    0.8496    0.0000 H       1  UNL1        0.0623
     29 H           6.6052    3.0396    0.0000 H       1  UNL1        0.2102
     30 H           2.8665    1.5625    0.0000 H       1  UNL1        0.0691
     31 H          10.0693    0.0396    0.0000 H       1  UNL1        0.0655
     32 H           3.7865    3.0804    0.0000 H       1  UNL1        0.2922
     33 H           2.0000    0.0134    0.0000 H       1  UNL1        0.2921
     34 H           8.1294   -3.0804    0.0000 H       1  UNL1        0.2923
     35 H          10.9353   -1.4604    0.0000 H       1  UNL1        0.2923
@<TRIPOS>BOND
     1     1     7    1
     2     1    11    1
     3     9     2    1
     4     2    29    1
     5     3    13    1
     6     3    32    1
     7     4    18    1
     8     4    33    1
     9     5    19    1
    10     5    34    1
    11     6    21    1
    12     6    35    1
    13     7     8    1
    14     7    12    1
    15     7    22    1
    16     8     9    1
    17     8    23    1
    18     8    24    1
    19     9    10    1
    20     9    25    1
    21    10    11   ar
    22    10    13   ar
    23    11    14   ar
    24    12    15   ar
    25    12    16   ar
    26    13    17   ar
    27    14    18   ar
    28    14    26    1
    29    15    19   ar
    30    15    27    1
    31    16    20   ar
    32    16    28    1
    33    17    18   ar
    34    17    30    1
    35    19    21   ar
    36    20    21   ar
    37    20    31    1
