@<TRIPOS>MOLECULE
IMPHY002816
 39 41 0 0 0
SMALL
GASTEIGER

@<TRIPOS>ATOM
      1 O           5.4920   -1.3797    0.0000 O.2     1  UNL1       -0.4622
      2 O           3.7320    1.6550    0.0000 O.3     1  UNL1       -0.5055
      3 O           5.4804    1.6896    0.0000 O.2     1  UNL1       -0.2866
      4 O           2.0000   -1.3450    0.0000 O.3     1  UNL1       -0.5063
      5 O          10.7340   -1.3075    0.0000 O.3     1  UNL1       -0.4951
      6 C           4.5981    0.1550    0.0000 C.ar    1  UNL1        0.1060
      7 C           6.3981    0.1758    0.0000 C.ar    1  UNL1        0.0391
      8 C           7.2622    0.6792    0.0000 C.3     1  UNL1        0.0041
      9 C           5.4920    0.6897    0.0000 C.ar    1  UNL1        0.1995
     10 C           4.5981   -0.8450    0.0000 C.ar    1  UNL1        0.1454
     11 C           3.7320    0.6550    0.0000 C.ar    1  UNL1        0.1376
     12 C           8.1301    0.1825    0.0000 C.ar    1  UNL1       -0.0426
     13 C           2.8660    0.1550    0.0000 C.ar    1  UNL1        0.0332
     14 C           6.3981   -0.8658    0.0000 C.ar    1  UNL1        0.0996
     15 C           3.7320   -1.3450    0.0000 C.ar    1  UNL1        0.0233
     16 C           2.8660   -0.8450    0.0000 C.ar    1  UNL1        0.1267
     17 C           8.1340   -0.8175    0.0000 C.ar    1  UNL1       -0.0548
     18 C           8.9942    0.6858    0.0000 C.ar    1  UNL1       -0.0548
     19 C           2.0000    0.6550    0.0000 C.3     1  UNL1       -0.0327
     20 C           9.0019   -1.3142    0.0000 C.ar    1  UNL1       -0.0197
     21 C           9.8622    0.1892    0.0000 C.ar    1  UNL1       -0.0197
     22 C           9.8660   -0.8108    0.0000 C.ar    1  UNL1        0.1201
     23 C          11.5981   -0.8041    0.0000 C.3     1  UNL1        0.0788
     24 H           7.6589    1.1556    0.0000 H       1  UNL1        0.0364
     25 H           6.8618    1.1526    0.0000 H       1  UNL1        0.0364
     26 H           6.9338   -1.1779    0.0000 H       1  UNL1        0.1033
     27 H           3.7320   -1.9650    0.0000 H       1  UNL1        0.0691
     28 H           7.5982   -1.1296    0.0000 H       1  UNL1        0.0622
     29 H           8.9918    1.3058    0.0000 H       1  UNL1        0.0622
     30 H           2.3100    1.1919    0.0000 H       1  UNL1        0.0280
     31 H           1.4631    0.9650    0.0000 H       1  UNL1        0.0280
     32 H           1.6900    0.1181    0.0000 H       1  UNL1        0.0280
     33 H           9.0043   -1.9342    0.0000 H       1  UNL1        0.0654
     34 H          10.3979    0.5012    0.0000 H       1  UNL1        0.0654
     35 H           3.1951    1.9650    0.0000 H       1  UNL1        0.2922
     36 H           2.0000   -1.9650    0.0000 H       1  UNL1        0.2921
     37 H          11.9101   -1.3399    0.0000 H       1  UNL1        0.0660
     38 H          12.1338   -0.4921    0.0000 H       1  UNL1        0.0660
     39 H          11.2860   -0.2684    0.0000 H       1  UNL1        0.0660
@<TRIPOS>BOND
     1     1    10   ar
     2     1    14   ar
     3     2    11    1
     4     2    35    1
     5     3     9    2
     6     4    16    1
     7     4    36    1
     8     5    22    1
     9     5    23    1
    10     6     9   ar
    11     6    10   ar
    12     6    11   ar
    13     7     8    1
    14     7     9   ar
    15     7    14   ar
    16     8    12    1
    17     8    24    1
    18     8    25    1
    19    10    15   ar
    20    11    13   ar
    21    12    17   ar
    22    12    18   ar
    23    13    16   ar
    24    13    19    1
    25    14    26    1
    26    15    16   ar
    27    15    27    1
    28    17    20   ar
    29    17    28    1
    30    18    21   ar
    31    18    29    1
    32    19    30    1
    33    19    31    1
    34    19    32    1
    35    20    22   ar
    36    20    33    1
    37    21    22   ar
    38    21    34    1
    39    23    37    1
    40    23    38    1
    41    23    39    1
