@<TRIPOS>MOLECULE
IMPHY000261
 109 115 0 0 0
SMALL
GASTEIGER

@<TRIPOS>ATOM
      1 O           9.1169   -1.6507    0.0000 O.3     1  UNL1       -0.3910
      2 O           7.2794   -1.6796    0.0000 O.3     1  UNL1       -0.4534
      3 O          14.4689    4.5629    0.0000 O.3     1  UNL1       -0.3912
      4 O           5.4679   -0.6338    0.0000 O.3     1  UNL1       -0.4536
      5 O           7.8539   -2.0669    0.0000 O.3     1  UNL1       -0.3942
      6 O           5.5473   -1.6863    0.0000 O.2     1  UNL1       -0.2449
      7 O           4.6077    0.8695    0.0000 O.2     1  UNL1       -0.2449
      8 C          10.8610    1.4186    0.0000 C.3     1  UNL1       -0.0193
      9 C          10.8610    2.4186    0.0000 C.3     1  UNL1       -0.0257
     10 C           9.9950    0.9185    0.0000 C.3     1  UNL1       -0.0028
     11 C          11.7550    2.9532    0.0000 C.3     1  UNL1       -0.0250
     12 C          12.6610    2.4394    0.0000 C.3     1  UNL1       -0.0278
     13 C          11.7550    0.8839    0.0000 C.3     1  UNL1       -0.0463
     14 C           9.1290    1.4186    0.0000 C.2     1  UNL1       -0.0630
     15 C           8.2190    0.9117    0.0000 C.3     1  UNL1       -0.0051
     16 C           8.2109   -0.1299    0.0000 C.3     1  UNL1        0.0666
     17 C          12.6610    1.3977    0.0000 C.3     1  UNL1       -0.0486
     18 C          10.0110   -0.1230    0.0000 C.3     1  UNL1       -0.0165
     19 C          13.6048    2.9746    0.0000 C.3     1  UNL1       -0.0056
     20 C           9.9950    2.9186    0.0000 C.3     1  UNL1       -0.0306
     21 C          11.7299    4.0379    0.0000 C.3     1  UNL1       -0.0447
     22 C           9.1130   -0.6507    0.0000 C.3     1  UNL1        0.0678
     23 C          11.2031    0.4789    0.0000 C.3     1  UNL1       -0.0585
     24 C           9.1290    2.4186    0.0000 C.2     1  UNL1       -0.0836
     25 C           7.2921    1.4758    0.0000 C.3     1  UNL1       -0.0370
     26 C           7.2755   -0.6796    0.0000 C.3     1  UNL1        0.1511
     27 C          10.6378    0.1525    0.0000 C.3     1  UNL1       -0.0552
     28 C          13.6048    4.0596    0.0000 C.3     1  UNL1        0.0606
     29 C          10.8851    3.4465    0.0000 C.3     1  UNL1       -0.0590
     30 C          12.6610    4.5948    0.0000 C.3     1  UNL1       -0.0258
     31 C           6.3442    0.9478    0.0000 C.3     1  UNL1        0.0063
     32 C           6.3359   -0.1371    0.0000 C.3     1  UNL1        0.1458
     33 C           8.2032   -1.1299    0.0000 C.3     1  UNL1        0.0563
     34 C          14.6048    2.9707    0.0000 C.3     1  UNL1       -0.0572
     35 C          14.1015    2.1067    0.0000 C.3     1  UNL1       -0.0572
     36 C           5.8543    1.8196    0.0000 C.3     1  UNL1       -0.0563
     37 C           5.3443    0.9594    0.0000 C.3     1  UNL1       -0.0563
     38 C           6.4153   -2.1830    0.0000 C.2     1  UNL1        0.3396
     39 C           4.6038   -0.1304    0.0000 C.2     1  UNL1        0.3396
     40 C           6.4191   -3.1829    0.0000 C.ar    1  UNL1        0.0590
     41 C           3.7359   -0.6271    0.0000 C.ar    1  UNL1        0.0590
     42 C           5.5550   -3.6863    0.0000 C.ar    1  UNL1       -0.0478
     43 C           7.2871   -3.6796    0.0000 C.ar    1  UNL1       -0.0478
     44 C           2.8718   -0.1238    0.0000 C.ar    1  UNL1       -0.0478
     45 C           3.7320   -1.6271    0.0000 C.ar    1  UNL1       -0.0478
     46 C           5.5589   -4.6863    0.0000 C.ar    1  UNL1       -0.0610
     47 C           7.2909   -4.6796    0.0000 C.ar    1  UNL1       -0.0610
     48 C           2.0038   -0.6204    0.0000 C.ar    1  UNL1       -0.0610
     49 C           2.8641   -2.1238    0.0000 C.ar    1  UNL1       -0.0610
     50 C           6.4268   -5.1829    0.0000 C.ar    1  UNL1       -0.0617
     51 C           2.0000   -1.6204    0.0000 C.ar    1  UNL1       -0.0617
     52 H          11.6004    1.9992    0.0000 H       1  UNL1        0.0315
     53 H          13.3955    2.0115    0.0000 H       1  UNL1        0.0312
     54 H          11.3504    0.4141    0.0000 H       1  UNL1        0.0271
     55 H          12.1486    0.4049    0.0000 H       1  UNL1        0.0271
     56 H           8.2353    1.7616    0.0000 H       1  UNL1        0.0354
     57 H          12.8701    0.8140    0.0000 H       1  UNL1        0.0268
     58 H          13.2719    1.5038    0.0000 H       1  UNL1        0.0268
     59 H          10.2291   -0.7034    0.0000 H       1  UNL1        0.0299
     60 H          10.6202   -0.0075    0.0000 H       1  UNL1        0.0299
     61 H          10.3935    3.3935    0.0000 H       1  UNL1        0.0310
     62 H           9.5965    3.3935    0.0000 H       1  UNL1        0.0310
     63 H          11.5074    4.6166    0.0000 H       1  UNL1        0.0271
     64 H          11.1216    3.9177    0.0000 H       1  UNL1        0.0271
     65 H           9.6517   -0.9576    0.0000 H       1  UNL1        0.0601
     66 H          10.6205    0.2668    0.0000 H       1  UNL1        0.0235
     67 H          11.4152   -0.1037    0.0000 H       1  UNL1        0.0235
     68 H          11.7857    0.6910    0.0000 H       1  UNL1        0.0235
     69 H           8.5920    2.7285    0.0000 H       1  UNL1        0.0572
     70 H           7.7003    1.9424    0.0000 H       1  UNL1        0.0278
     71 H           6.9022    1.9578    0.0000 H       1  UNL1        0.0278
     72 H           7.8142   -0.9865    0.0000 H       1  UNL1        0.0779
     73 H          10.1628   -0.2460    0.0000 H       1  UNL1        0.0238
     74 H          11.0363   -0.3224    0.0000 H       1  UNL1        0.0238
     75 H          11.1127    0.5510    0.0000 H       1  UNL1        0.0238
     76 H          13.6012    4.6796    0.0000 H       1  UNL1        0.0599
     77 H          11.1910    3.9858    0.0000 H       1  UNL1        0.0235
     78 H          10.3458    3.7524    0.0000 H       1  UNL1        0.0235
     79 H          10.5793    2.9072    0.0000 H       1  UNL1        0.0235
     80 H          13.0546    5.0738    0.0000 H       1  UNL1        0.0290
     81 H          12.2564    5.0646    0.0000 H       1  UNL1        0.0290
     82 H           6.3347   -0.7571    0.0000 H       1  UNL1        0.0777
     83 H           8.6509   -1.5588    0.0000 H       1  UNL1        0.0565
     84 H           7.5935   -1.0175    0.0000 H       1  UNL1        0.0565
     85 H          14.6024    2.3508    0.0000 H       1  UNL1        0.0236
     86 H          15.2248    2.9684    0.0000 H       1  UNL1        0.0236
     87 H          14.6072    3.5907    0.0000 H       1  UNL1        0.0236
     88 H          13.5633    1.7987    0.0000 H       1  UNL1        0.0236
     89 H          14.4094    1.5685    0.0000 H       1  UNL1        0.0236
     90 H          14.6396    2.4146    0.0000 H       1  UNL1        0.0236
     91 H           9.6550   -1.9586    0.0000 H       1  UNL1        0.2098
     92 H           6.3948    2.1234    0.0000 H       1  UNL1        0.0236
     93 H           5.3515    1.5794    0.0000 H       1  UNL1        0.0236
     94 H           4.7244    0.9666    0.0000 H       1  UNL1        0.0236
     95 H           5.3371    0.3394    0.0000 H       1  UNL1        0.0236
     96 H           5.5505    2.3601    0.0000 H       1  UNL1        0.0236
     97 H           5.3138    1.5158    0.0000 H       1  UNL1        0.0236
     98 H          14.4665    5.1829    0.0000 H       1  UNL1        0.2098
     99 H           8.2488   -2.5449    0.0000 H       1  UNL1        0.2094
    100 H           5.0169   -3.3784    0.0000 H       1  UNL1        0.0626
    101 H           7.8228   -3.3675    0.0000 H       1  UNL1        0.0626
    102 H           2.8742    0.4962    0.0000 H       1  UNL1        0.0626
    103 H           4.2678   -1.9392    0.0000 H       1  UNL1        0.0626
    104 H           5.0232   -4.9983    0.0000 H       1  UNL1        0.0618
    105 H           7.8290   -4.9875    0.0000 H       1  UNL1        0.0618
    106 H           1.4681   -0.3084    0.0000 H       1  UNL1        0.0618
    107 H           2.8617   -2.7438    0.0000 H       1  UNL1        0.0618
    108 H           6.4292   -5.8029    0.0000 H       1  UNL1        0.0618
    109 H           1.4619   -1.9284    0.0000 H       1  UNL1        0.0618
@<TRIPOS>BOND
     1    22     1    1
     2     1    91    1
     3    26     2    1
     4     2    38    1
     5    28     3    1
     6     3    98    1
     7    32     4    1
     8     4    39    1
     9     5    33    1
    10     5    99    1
    11     6    38    2
    12     7    39    2
    13     8     9    1
    14     8    10    1
    15     8    13    1
    16     8    23    1
    17     9    11    1
    18     9    20    1
    19     9    52    1
    20    10    14    1
    21    10    18    1
    22    10    27    1
    23    11    12    1
    24    11    21    1
    25    11    29    1
    26    12    17    1
    27    12    19    1
    28    12    53    1
    29    13    17    1
    30    13    54    1
    31    13    55    1
    32    14    15    1
    33    14    24    2
    34    15    16    1
    35    15    25    1
    36    15    56    1
    37    16    22    1
    38    16    26    1
    39    16    33    1
    40    17    57    1
    41    17    58    1
    42    18    22    1
    43    18    59    1
    44    18    60    1
    45    19    28    1
    46    19    34    1
    47    19    35    1
    48    20    24    1
    49    20    61    1
    50    20    62    1
    51    21    30    1
    52    21    63    1
    53    21    64    1
    54    22    65    1
    55    23    66    1
    56    23    67    1
    57    23    68    1
    58    24    69    1
    59    25    31    1
    60    25    70    1
    61    25    71    1
    62    26    32    1
    63    26    72    1
    64    27    73    1
    65    27    74    1
    66    27    75    1
    67    28    30    1
    68    28    76    1
    69    29    77    1
    70    29    78    1
    71    29    79    1
    72    30    80    1
    73    30    81    1
    74    31    32    1
    75    31    36    1
    76    31    37    1
    77    32    82    1
    78    33    83    1
    79    33    84    1
    80    34    85    1
    81    34    86    1
    82    34    87    1
    83    35    88    1
    84    35    89    1
    85    35    90    1
    86    36    92    1
    87    36    96    1
    88    36    97    1
    89    37    93    1
    90    37    94    1
    91    37    95    1
    92    38    40    1
    93    39    41    1
    94    40    42   ar
    95    40    43   ar
    96    41    44   ar
    97    41    45   ar
    98    42    46   ar
    99    42   100    1
   100    43    47   ar
   101    43   101    1
   102    44    48   ar
   103    44   102    1
   104    45    49   ar
   105    45   103    1
   106    46    50   ar
   107    46   104    1
   108    47    50   ar
   109    47   105    1
   110    48    51   ar
   111    48   106    1
   112    49    51   ar
   113    49   107    1
   114    50   108    1
   115    51   109    1
