@<TRIPOS>MOLECULE
IMPHY016834
 20 19 0 0 0
SMALL
GASTEIGER

@<TRIPOS>ATOM
      1 S           4.5981   -0.2500    0.0000 S.3     1  UNL1       -0.0887
      2 S           5.4641    0.2500    0.0000 S.3     1  UNL1       -0.0652
      3 C           2.8660   -0.2500    0.0000 C.3     1  UNL1       -0.0461
      4 C           3.7320    0.2500    0.0000 C.3     1  UNL1        0.0040
      5 C           2.0000    0.2500    0.0000 C.3     1  UNL1       -0.0645
      6 C           6.3301   -0.2500    0.0000 C.2     1  UNL1       -0.0220
      7 C           7.1962    0.2500    0.0000 C.2     1  UNL1       -0.0801
      8 C           8.0622   -0.2500    0.0000 C.3     1  UNL1       -0.0460
      9 H           2.4675   -0.7249    0.0000 H       1  UNL1        0.0271
     10 H           3.2646   -0.7249    0.0000 H       1  UNL1        0.0271
     11 H           4.1306    0.7249    0.0000 H       1  UNL1        0.0385
     12 H           3.3335    0.7249    0.0000 H       1  UNL1        0.0385
     13 H           2.3100    0.7869    0.0000 H       1  UNL1        0.0230
     14 H           1.4631    0.5600    0.0000 H       1  UNL1        0.0230
     15 H           1.6900   -0.2869    0.0000 H       1  UNL1        0.0230
     16 H           6.3301   -0.8700    0.0000 H       1  UNL1        0.0695
     17 H           7.1962    0.8700    0.0000 H       1  UNL1        0.0574
     18 H           7.7522   -0.7869    0.0000 H       1  UNL1        0.0272
     19 H           8.5991   -0.5600    0.0000 H       1  UNL1        0.0272
     20 H           8.3722    0.2869    0.0000 H       1  UNL1        0.0272
@<TRIPOS>BOND
     1     1     2    1
     2     1     4    1
     3     2     6    1
     4     3     4    1
     5     3     5    1
     6     3     9    1
     7     3    10    1
     8     4    11    1
     9     4    12    1
    10     5    13    1
    11     5    14    1
    12     5    15    1
    13     6     7    2
    14     6    16    1
    15     7     8    1
    16     7    17    1
    17     8    18    1
    18     8    19    1
    19     8    20    1
