@<TRIPOS>MOLECULE
IMPHY005772
 46 50 0 0 0
SMALL
GASTEIGER

@<TRIPOS>ATOM
      1 O           2.2314    0.0528    0.0000 O.3     1  UNL1       -0.4811
      2 O           2.0000   -2.4021    0.0000 O.3     1  UNL1       -0.3721
      3 O           2.0000    2.4021    0.0000 O.3     1  UNL1       -0.4914
      4 N           6.1607   -0.9511    0.0000 N.3     1  UNL1       -0.3015
      5 C           3.6897   -0.4755    0.0000 C.3     1  UNL1        0.0480
      6 C           4.5133   -0.9511    0.0000 C.3     1  UNL1        0.0064
      7 C           5.3370   -0.4755    0.0000 C.3     1  UNL1        0.0213
      8 C           2.8660   -0.9511    0.0000 C.3     1  UNL1        0.1401
      9 C           4.2392    0.2219    0.0000 C.3     1  UNL1       -0.0263
     10 C           3.6897    0.4755    0.0000 C.ar    1  UNL1        0.0116
     11 C           5.3370    0.4755    0.0000 C.3     1  UNL1       -0.0110
     12 C           5.5918    0.2219    0.0000 C.3     1  UNL1       -0.0001
     13 C           2.8660   -1.9022    0.0000 C.3     1  UNL1        0.1140
     14 C           4.5133    0.9511    0.0000 C.ar    1  UNL1       -0.0383
     15 C           4.5133   -1.9022    0.0000 C.2     1  UNL1       -0.0799
     16 C           2.8660    0.9511    0.0000 C.ar    1  UNL1        0.1666
     17 C           3.6897   -2.3777    0.0000 C.2     1  UNL1       -0.0557
     18 C           4.5133    1.9022    0.0000 C.ar    1  UNL1       -0.0546
     19 C           6.8418   -1.6832    0.0000 C.3     1  UNL1       -0.0124
     20 C           2.8660    1.9022    0.0000 C.ar    1  UNL1        0.1618
     21 C           3.6897    2.3777    0.0000 C.ar    1  UNL1       -0.0160
     22 C           2.0000   -3.4022    0.0000 C.3     1  UNL1        0.0374
     23 C           2.0000    3.4022    0.0000 C.3     1  UNL1        0.0790
     24 H           5.0597   -1.6022    0.0000 H       1  UNL1        0.0368
     25 H           5.6284   -1.2740    0.0000 H       1  UNL1        0.0472
     26 H           2.0496   -1.1875    0.0000 H       1  UNL1        0.0772
     27 H           4.3760    0.8266    0.0000 H       1  UNL1        0.0287
     28 H           3.6796    0.4887    0.0000 H       1  UNL1        0.0287
     29 H           5.9476    0.3679    0.0000 H       1  UNL1        0.0329
     30 H           5.5490    1.0581    0.0000 H       1  UNL1        0.0329
     31 H           6.1840    0.4057    0.0000 H       1  UNL1        0.0427
     32 H           5.4989    0.8349    0.0000 H       1  UNL1        0.0427
     33 H           2.8660   -2.5222    0.0000 H       1  UNL1        0.0678
     34 H           5.0503   -2.2122    0.0000 H       1  UNL1        0.0573
     35 H           3.6897   -2.9977    0.0000 H       1  UNL1        0.0596
     36 H           5.0503    2.2122    0.0000 H       1  UNL1        0.0622
     37 H           6.3879   -2.1055    0.0000 H       1  UNL1        0.0391
     38 H           7.2641   -2.1371    0.0000 H       1  UNL1        0.0391
     39 H           7.2957   -1.2609    0.0000 H       1  UNL1        0.0391
     40 H           3.6897    2.9977    0.0000 H       1  UNL1        0.0655
     41 H           1.3800   -3.4022    0.0000 H       1  UNL1        0.0524
     42 H           2.0000   -4.0222    0.0000 H       1  UNL1        0.0524
     43 H           2.6200   -3.4022    0.0000 H       1  UNL1        0.0524
     44 H           2.6200    3.4022    0.0000 H       1  UNL1        0.0660
     45 H           2.0000    4.0222    0.0000 H       1  UNL1        0.0660
     46 H           1.3800    3.4022    0.0000 H       1  UNL1        0.0660
@<TRIPOS>BOND
     1     1     8    1
     2     1    16    1
     3    13     2    1
     4     2    22    1
     5     3    20    1
     6     3    23    1
     7     4     7    1
     8     4    12    1
     9     4    19    1
    10     5     6    1
    11     5     8    1
    12     5     9    1
    13     5    10    1
    14     6     7    1
    15     6    15    1
    16     6    24    1
    17     7    11    1
    18     7    25    1
    19     8    13    1
    20     8    26    1
    21     9    12    1
    22     9    27    1
    23     9    28    1
    24    10    14   ar
    25    10    16   ar
    26    11    14    1
    27    11    29    1
    28    11    30    1
    29    12    31    1
    30    12    32    1
    31    13    17    1
    32    13    33    1
    33    14    18   ar
    34    15    17    2
    35    15    34    1
    36    16    20   ar
    37    17    35    1
    38    18    21   ar
    39    18    36    1
    40    19    37    1
    41    19    38    1
    42    19    39    1
    43    20    21   ar
    44    21    40    1
    45    22    41    1
    46    22    42    1
    47    22    43    1
    48    23    44    1
    49    23    45    1
    50    23    46    1
