@<TRIPOS>MOLECULE
IMPHY001954
 94 96 0 0 0
SMALL
GASTEIGER

@<TRIPOS>ATOM
      1 K           4.5981   -5.5818    0.0000 K       1  UNL1        0.0000
      2 K           2.0000   -2.0818    0.0000 K       2  UNL2        0.0000
      3 S           5.4641   -4.0818    0.0000 S.3     3  UNL3        0.0000
      4 S           3.7320   -2.0818    0.0000 S.3     3  UNL3        0.0000
      5 O          10.4766    5.1653    0.0000 O.3     3  UNL3        0.0000
      6 O           8.0622   -0.5818    0.0000 O.3     3  UNL3        0.0000
      7 O           6.2944    3.5624    0.0000 O.3     3  UNL3        0.0000
      8 O           5.4053    2.0760    0.0000 O.2     3  UNL3        0.0000
      9 O           6.3301   -0.5818    0.0000 O.3     3  UNL3        0.0000
     10 O           8.0622   -2.5818    0.0000 O.3     3  UNL3        0.0000
     11 O           6.3301   -3.5818    0.0000 O.3     3  UNL3        0.0000
     12 O           4.5981   -2.5818    0.0000 O.3     3  UNL3        0.0000
     13 O           4.5981    0.4182    0.0000 O.3     3  UNL3        0.0000
     14 O           7.1962   -4.0818    0.0000 O.2     3  UNL3        0.0000
     15 O           4.5981   -4.5818    0.0000 O.co2   3  UNL3       -0.3300
     16 O           5.9641   -4.9478    0.0000 O.2     3  UNL3       -0.3300
     17 O           4.9641   -3.2157    0.0000 O.2     3  UNL3       -0.3300
     18 O           2.8660   -1.5818    0.0000 O.co2   3  UNL3       -0.3300
     19 O           3.2320   -2.9478    0.0000 O.2     3  UNL3       -0.3300
     20 O           4.2320   -1.2157    0.0000 O.2     3  UNL3       -0.3300
     21 C           9.8988    3.5735    0.0000 C.3     3  UNL3        0.0000
     22 C           9.8872    2.5736    0.0000 C.3     3  UNL3        0.0000
     23 C           8.9872    2.0493    0.0000 C.3     3  UNL3        0.0000
     24 C           8.0871    2.5736    0.0000 C.3     3  UNL3        0.0000
     25 C          10.9056    2.9550    0.0000 C.3     3  UNL3        0.0000
     26 C           9.0111    4.1185    0.0000 C.3     3  UNL3        0.0000
     27 C          12.0835    3.0482    0.0000 C.3     3  UNL3        0.0000
     28 C          10.6878    4.1879    0.0000 C.3     3  UNL3        0.0000
     29 C          10.6618    1.9411    0.0000 C.3     3  UNL3        0.0000
     30 C           8.0992    3.6151    0.0000 C.3     3  UNL3        0.0000
     31 C           8.9997    0.9644    0.0000 C.3     3  UNL3        0.0000
     32 C          11.6392    2.1523    0.0000 C.3     3  UNL3        0.0000
     33 C           7.1372    2.0493    0.0000 C.3     3  UNL3        0.0000
     34 C          11.6601    3.9541    0.0000 C.2     3  UNL3        0.0000
     35 C           9.8513    1.5459    0.0000 C.3     3  UNL3        0.0000
     36 C           8.0622    0.4182    0.0000 C.3     3  UNL3        0.0000
     37 C           7.1246    0.9644    0.0000 C.3     3  UNL3        0.0000
     38 C           6.2790    2.5626    0.0000 C.2     3  UNL3        0.0000
     39 C          12.2926    4.7287    0.0000 C.2     3  UNL3        0.0000
     40 C           7.1962   -1.0818    0.0000 C.3     3  UNL3        0.0000
     41 C           7.1962   -2.0818    0.0000 C.3     3  UNL3        0.0000
     42 C           6.3301   -2.5818    0.0000 C.3     3  UNL3        0.0000
     43 C           5.4641   -1.0818    0.0000 C.3     3  UNL3        0.0000
     44 C           5.4641   -2.0818    0.0000 C.3     3  UNL3        0.0000
     45 C           4.5981   -0.5818    0.0000 C.3     3  UNL3        0.0000
     46 C           8.0622   -3.5818    0.0000 C.2     3  UNL3        0.0000
     47 C           8.9282   -4.0818    0.0000 C.3     3  UNL3        0.0000
     48 C           8.9282   -5.0818    0.0000 C.3     3  UNL3        0.0000
     49 C           9.7942   -5.5818    0.0000 C.3     3  UNL3        0.0000
     50 C           8.0622   -5.5818    0.0000 C.3     3  UNL3        0.0000
     51 H          10.4489    2.8361    0.0000 H       3  UNL3        0.0000
     52 H           7.5550    2.8918    0.0000 H       3  UNL3        0.0000
     53 H          10.4339    2.5526    0.0000 H       3  UNL3        0.0000
     54 H          11.1428    2.3821    0.0000 H       3  UNL3        0.0000
     55 H           9.4211    4.5835    0.0000 H       3  UNL3        0.0000
     56 H           8.6230    4.6020    0.0000 H       3  UNL3        0.0000
     57 H          12.9100    2.8495    0.0000 H       3  UNL3        0.0000
     58 H          10.1050    4.3994    0.0000 H       3  UNL3        0.0000
     59 H          10.1726    1.5601    0.0000 H       3  UNL3        0.0000
     60 H          10.9243    1.3794    0.0000 H       3  UNL3        0.0000
     61 H           7.8968    4.2012    0.0000 H       3  UNL3        0.0000
     62 H           7.4871    3.5161    0.0000 H       3  UNL3        0.0000
     63 H           9.2155    0.3831    0.0000 H       3  UNL3        0.0000
     64 H           9.6093    1.0775    0.0000 H       3  UNL3        0.0000
     65 H          11.6321    1.5324    0.0000 H       3  UNL3        0.0000
     66 H          12.2421    2.0074    0.0000 H       3  UNL3        0.0000
     67 H           6.5961    1.7466    0.0000 H       3  UNL3        0.0000
     68 H           9.5392    1.0102    0.0000 H       3  UNL3        0.0000
     69 H          10.3870    1.2339    0.0000 H       3  UNL3        0.0000
     70 H          10.1633    2.0817    0.0000 H       3  UNL3        0.0000
     71 H           7.5246    0.1093    0.0000 H       3  UNL3        0.0000
     72 H           6.5151    1.0775    0.0000 H       3  UNL3        0.0000
     73 H           6.9088    0.3831    0.0000 H       3  UNL3        0.0000
     74 H          10.9359    5.5818    0.0000 H       3  UNL3        0.0000
     75 H          12.9045    4.6292    0.0000 H       3  UNL3        0.0000
     76 H          12.0727    5.3084    0.0000 H       3  UNL3        0.0000
     77 H           7.7331   -1.3918    0.0000 H       3  UNL3        0.0000
     78 H           5.7623    3.8807    0.0000 H       3  UNL3        0.0000
     79 H           7.1962   -2.7018    0.0000 H       3  UNL3        0.0000
     80 H           5.7932   -2.8918    0.0000 H       3  UNL3        0.0000
     81 H           5.4641   -0.4618    0.0000 H       3  UNL3        0.0000
     82 H           4.9272   -1.7718    0.0000 H       3  UNL3        0.0000
     83 H           3.9875   -0.4741    0.0000 H       3  UNL3        0.0000
     84 H           4.3860   -1.1644    0.0000 H       3  UNL3        0.0000
     85 H           4.0611    0.7282    0.0000 H       3  UNL3        0.0000
     86 H           9.5388   -4.1894    0.0000 H       3  UNL3        0.0000
     87 H           9.1403   -3.4992    0.0000 H       3  UNL3        0.0000
     88 H           9.4651   -4.7718    0.0000 H       3  UNL3        0.0000
     89 H           9.4842   -6.1187    0.0000 H       3  UNL3        0.0000
     90 H           7.7522   -5.0448    0.0000 H       3  UNL3        0.0000
     91 H           7.5252   -5.8918    0.0000 H       3  UNL3        0.0000
     92 H           8.3722   -6.1187    0.0000 H       3  UNL3        0.0000
     93 H          10.3312   -5.8918    0.0000 H       3  UNL3        0.0000
     94 H          10.1042   -5.0448    0.0000 H       3  UNL3        0.0000
@<TRIPOS>UNITY_ATOM_ATTR
1 1
charge 1
2 1
charge 1
15 1
charge -1
18 1
charge -1
@<TRIPOS>BOND
     1     3    11    1
     2     3    15    1
     3     3    16    2
     4     3    17    2
     5     4    12    1
     6     4    18    1
     7     4    19    2
     8     4    20    2
     9    28     5    1
    10     5    74    1
    11    36     6    1
    12    40     6    1
    13     7    38    1
    14     7    78    1
    15     8    38    2
    16     9    40    1
    17     9    43    1
    18    41    10    1
    19    10    46    1
    20    42    11    1
    21    44    12    1
    22    13    45    1
    23    13    85    1
    24    14    46    2
    25    21    22    1
    26    21    25    1
    27    21    26    1
    28    21    28    1
    29    22    23    1
    30    22    29    1
    31    22    51    1
    32    23    24    1
    33    23    31    1
    34    23    35    1
    35    24    30    1
    36    24    33    1
    37    24    52    1
    38    25    27    1
    39    25    53    1
    40    25    54    1
    41    26    30    1
    42    26    55    1
    43    26    56    1
    44    27    32    1
    45    27    34    1
    46    27    57    1
    47    28    34    1
    48    28    58    1
    49    29    32    1
    50    29    59    1
    51    29    60    1
    52    30    61    1
    53    30    62    1
    54    31    36    1
    55    31    63    1
    56    31    64    1
    57    32    65    1
    58    32    66    1
    59    33    37    1
    60    33    38    1
    61    33    67    1
    62    34    39    2
    63    35    68    1
    64    35    69    1
    65    35    70    1
    66    36    37    1
    67    36    71    1
    68    37    72    1
    69    37    73    1
    70    39    75    1
    71    39    76    1
    72    40    41    1
    73    40    77    1
    74    41    42    1
    75    41    79    1
    76    42    44    1
    77    42    80    1
    78    43    44    1
    79    43    45    1
    80    43    81    1
    81    44    82    1
    82    45    83    1
    83    45    84    1
    84    46    47    1
    85    47    48    1
    86    47    86    1
    87    47    87    1
    88    48    49    1
    89    48    50    1
    90    48    88    1
    91    49    89    1
    92    49    93    1
    93    49    94    1
    94    50    90    1
    95    50    91    1
    96    50    92    1
