@<TRIPOS>MOLECULE
IMPHY003752
 38 39 0 0 0
SMALL
GASTEIGER

@<TRIPOS>ATOM
      1 O           8.1282    1.5241    0.0000 O.2     1  UNL1       -0.2927
      2 C           5.4641    0.0000    0.0000 C.3     1  UNL1       -0.0040
      3 C           6.3580   -0.5347    0.0000 C.3     1  UNL1       -0.0275
      4 C           4.5981   -0.5000    0.0000 C.3     1  UNL1       -0.0221
      5 C           5.4641    1.0000    0.0000 C.2     1  UNL1       -0.0595
      6 C           4.5981    1.5000    0.0000 C.3     1  UNL1       -0.0271
      7 C           7.2641   -0.0208    0.0000 C.3     1  UNL1        0.0132
      8 C           3.7320    0.0000    0.0000 C.2     1  UNL1       -0.0697
      9 C           5.4641   -1.0000    0.0000 C.3     1  UNL1       -0.0553
     10 C           3.7320    1.0000    0.0000 C.3     1  UNL1       -0.0278
     11 C           6.3465   -1.5346    0.0000 C.3     1  UNL1       -0.0612
     12 C           6.3580    1.5346    0.0000 C.2     1  UNL1       -0.0194
     13 C           7.2641    1.0208    0.0000 C.2     1  UNL1        0.1564
     14 C           2.8660   -0.5000    0.0000 C.2     1  UNL1       -0.0764
     15 C           2.0000    0.0000    0.0000 C.3     1  UNL1       -0.0438
     16 C           2.8660   -1.5000    0.0000 C.3     1  UNL1       -0.0438
     17 H           6.8920   -0.8499    0.0000 H       1  UNL1        0.0311
     18 H           4.1996   -0.9750    0.0000 H       1  UNL1        0.0319
     19 H           4.9966   -0.9750    0.0000 H       1  UNL1        0.0319
     20 H           4.9966    1.9749    0.0000 H       1  UNL1        0.0313
     21 H           4.1996    1.9749    0.0000 H       1  UNL1        0.0313
     22 H           7.4732   -0.6045    0.0000 H       1  UNL1        0.0348
     23 H           7.8750    0.0852    0.0000 H       1  UNL1        0.0348
     24 H           4.8441   -1.0000    0.0000 H       1  UNL1        0.0238
     25 H           5.4641   -1.6200    0.0000 H       1  UNL1        0.0238
     26 H           6.0841   -1.0000    0.0000 H       1  UNL1        0.0238
     27 H           3.5200    1.5826    0.0000 H       1  UNL1        0.0313
     28 H           3.1215    0.8923    0.0000 H       1  UNL1        0.0313
     29 H           5.7265   -1.5275    0.0000 H       1  UNL1        0.0233
     30 H           6.3393   -2.1546    0.0000 H       1  UNL1        0.0233
     31 H           6.9664   -1.5418    0.0000 H       1  UNL1        0.0233
     32 H           6.3509    2.1546    0.0000 H       1  UNL1        0.0652
     33 H           2.3100    0.5369    0.0000 H       1  UNL1        0.0274
     34 H           1.4631    0.3100    0.0000 H       1  UNL1        0.0274
     35 H           1.6900   -0.5370    0.0000 H       1  UNL1        0.0274
     36 H           2.2460   -1.5000    0.0000 H       1  UNL1        0.0274
     37 H           2.8660   -2.1200    0.0000 H       1  UNL1        0.0274
     38 H           3.4860   -1.5000    0.0000 H       1  UNL1        0.0274
@<TRIPOS>BOND
     1     1    13    2
     2     2     3    1
     3     2     4    1
     4     2     5    1
     5     2     9    1
     6     3     7    1
     7     3    11    1
     8     3    17    1
     9     4     8    1
    10     4    18    1
    11     4    19    1
    12     5     6    1
    13     5    12    2
    14     6    10    1
    15     6    20    1
    16     6    21    1
    17     7    13    1
    18     7    22    1
    19     7    23    1
    20     8    10    1
    21     8    14    2
    22     9    24    1
    23     9    25    1
    24     9    26    1
    25    10    27    1
    26    10    28    1
    27    11    29    1
    28    11    30    1
    29    11    31    1
    30    12    13    1
    31    12    32    1
    32    14    15    1
    33    14    16    1
    34    15    33    1
    35    15    34    1
    36    15    35    1
    37    16    36    1
    38    16    37    1
    39    16    38    1
