@<TRIPOS>MOLECULE
IMPHY014039
 40 43 0 0 0
SMALL
GASTEIGER

@<TRIPOS>ATOM
      1 O           2.0000   -1.3549    0.0000 O.3     1  UNL1       -0.3650
      2 O           7.3728   -1.3605    0.0000 O.3     1  UNL1       -0.4578
      3 O           7.8210    0.3125    0.0000 O.2     1  UNL1       -0.2450
      4 N           3.8802    1.0122    0.0000 N.3     1  UNL1       -0.2942
      5 C           2.6433   -0.5887    0.0000 C.3     1  UNL1        0.1023
      6 C           2.9853   -1.5284    0.0000 C.3     1  UNL1        0.1023
      7 C           4.6168    0.0295    0.0000 C.3     1  UNL1        0.0425
      8 C           4.3580   -0.9364    0.0000 C.3     1  UNL1        0.0425
      9 C           6.0485   -0.1681    0.0000 C.3     1  UNL1        0.0025
     10 C           5.6297   -1.7310    0.0000 C.3     1  UNL1        0.0025
     11 C           6.4068   -1.1017    0.0000 C.3     1  UNL1        0.1064
     12 C           3.3802    1.8782    0.0000 C.3     1  UNL1       -0.0120
     13 C           8.0799   -0.6534    0.0000 C.2     1  UNL1        0.3395
     14 C           9.0458   -0.9122    0.0000 C.2     1  UNL1        0.0591
     15 C           9.7529   -0.2051    0.0000 C.ar    1  UNL1       -0.0116
     16 C           9.3046   -1.8782    0.0000 C.2     1  UNL1       -0.0841
     17 C          10.7188   -0.4640    0.0000 C.ar    1  UNL1       -0.0538
     18 C           9.4941    0.7608    0.0000 C.ar    1  UNL1       -0.0538
     19 C          11.4259    0.2432    0.0000 C.ar    1  UNL1       -0.0612
     20 C          10.2012    1.4679    0.0000 C.ar    1  UNL1       -0.0612
     21 C          11.1671    1.2091    0.0000 C.ar    1  UNL1       -0.0617
     22 H           2.2994   -0.0728    0.0000 H       1  UNL1        0.0638
     23 H           3.0573   -2.1442    0.0000 H       1  UNL1        0.0638
     24 H           4.9315    0.5637    0.0000 H       1  UNL1        0.0490
     25 H           4.8603   -0.5729    0.0000 H       1  UNL1        0.0490
     26 H           6.6563   -0.0458    0.0000 H       1  UNL1        0.0317
     27 H           6.0294    0.4516    0.0000 H       1  UNL1        0.0317
     28 H           5.2451   -2.2174    0.0000 H       1  UNL1        0.0317
     29 H           6.0706   -2.1669    0.0000 H       1  UNL1        0.0317
     30 H           6.8217   -0.6410    0.0000 H       1  UNL1        0.0735
     31 H           3.9171    2.1882    0.0000 H       1  UNL1        0.0391
     32 H           3.0702    2.4151    0.0000 H       1  UNL1        0.0391
     33 H           2.8433    1.5682    0.0000 H       1  UNL1        0.0391
     34 H           8.8662   -2.3166    0.0000 H       1  UNL1        0.0543
     35 H           9.9035   -2.0386    0.0000 H       1  UNL1        0.0543
     36 H          10.8793   -1.0628    0.0000 H       1  UNL1        0.0624
     37 H           8.8952    0.9213    0.0000 H       1  UNL1        0.0624
     38 H          12.0248    0.0827    0.0000 H       1  UNL1        0.0618
     39 H          10.0407    2.0668    0.0000 H       1  UNL1        0.0618
     40 H          11.6055    1.6475    0.0000 H       1  UNL1        0.0618
@<TRIPOS>BOND
     1     1     5    1
     2     1     6    1
     3     2    11    1
     4     2    13    1
     5     3    13    2
     6     4     7    1
     7     4     8    1
     8     4    12    1
     9     5     6    1
    10     5     7    1
    11     5    22    1
    12     6     8    1
    13     6    23    1
    14     7     9    1
    15     7    24    1
    16     8    10    1
    17     8    25    1
    18     9    11    1
    19     9    26    1
    20     9    27    1
    21    10    11    1
    22    10    28    1
    23    10    29    1
    24    11    30    1
    25    12    31    1
    26    12    32    1
    27    12    33    1
    28    13    14    1
    29    14    15    1
    30    14    16    2
    31    15    17   ar
    32    15    18   ar
    33    16    34    1
    34    16    35    1
    35    17    19   ar
    36    17    36    1
    37    18    20   ar
    38    18    37    1
    39    19    21   ar
    40    19    38    1
    41    20    21   ar
    42    20    39    1
    43    21    40    1
