@<TRIPOS>MOLECULE
IMPHY006069
 13 13 0 0 0
SMALL
GASTEIGER

@<TRIPOS>ATOM
      1 O           2.0000    1.0000    0.0000 O.3     1  UNL1       -0.5012
      2 O           2.0000   -1.0000    0.0000 O.2     1  UNL1       -0.2637
      3 O           5.4641   -1.0000    0.0000 O.2     1  UNL1       -0.2467
      4 N           3.7320   -1.0000    0.0000 N.ar    1  UNL1       -0.2721
      5 N           4.5981    0.5000    0.0000 N.ar    1  UNL1       -0.3108
      6 C           2.8660    0.5000    0.0000 C.ar    1  UNL1        0.1981
      7 C           2.8660   -0.5000    0.0000 C.ar    1  UNL1        0.2956
      8 C           3.7320    1.0000    0.0000 C.ar    1  UNL1        0.0532
      9 C           4.5981   -0.5000    0.0000 C.ar    1  UNL1        0.3269
     10 H           3.7320    1.6200    0.0000 H       1  UNL1        0.0847
     11 H           3.7320   -1.6200    0.0000 H       1  UNL1        0.1735
     12 H           5.1350    0.8100    0.0000 H       1  UNL1        0.1699
     13 H           2.0000    1.6200    0.0000 H       1  UNL1        0.2924
@<TRIPOS>BOND
     1     1     6    1
     2     1    13    1
     3     2     7    2
     4     3     9    2
     5     4     7   ar
     6     4     9   ar
     7     4    11    1
     8     5     8   ar
     9     5     9   ar
    10     5    12    1
    11     6     7   ar
    12     6     8   ar
    13     8    10    1
