@<TRIPOS>MOLECULE
IMPHY001994
 31 33 0 0 0
SMALL
GASTEIGER

@<TRIPOS>ATOM
      1 O           5.5321   -0.5746    0.0000 O.3     1  UNL1       -0.4527
      2 O           2.9176   -2.1092    0.0000 O.3     1  UNL1       -0.5059
      3 O           4.6660   -2.0746    0.0000 O.2     1  UNL1       -0.2448
      4 O           8.9962    2.4254    0.0000 O.3     1  UNL1       -0.5068
      5 C           5.5321    0.4254    0.0000 C.3     1  UNL1        0.1323
      6 C           4.6660    0.9254    0.0000 C.3     1  UNL1        0.0148
      7 C           3.8000    0.4254    0.0000 C.ar    1  UNL1       -0.0260
      8 C           6.3981    0.9254    0.0000 C.ar    1  UNL1       -0.0067
      9 C           3.8000   -0.5746    0.0000 C.ar    1  UNL1        0.1036
     10 C           4.6660   -1.0746    0.0000 C.2     1  UNL1        0.3436
     11 C           2.9061    0.9601    0.0000 C.ar    1  UNL1       -0.0574
     12 C           2.9061   -1.1093    0.0000 C.ar    1  UNL1        0.1311
     13 C           7.2641    0.4254    0.0000 C.ar    1  UNL1       -0.0516
     14 C           6.3981    1.9254    0.0000 C.ar    1  UNL1       -0.0516
     15 C           2.0000    0.4462    0.0000 C.ar    1  UNL1       -0.0580
     16 C           2.0000   -0.5954    0.0000 C.ar    1  UNL1       -0.0193
     17 C           8.1301    0.9254    0.0000 C.ar    1  UNL1       -0.0198
     18 C           7.2641    2.4254    0.0000 C.ar    1  UNL1       -0.0198
     19 C           8.1301    1.9254    0.0000 C.ar    1  UNL1        0.1169
     20 H           5.5321    1.2754    0.0000 H       1  UNL1        0.0789
     21 H           5.0646    1.4003    0.0000 H       1  UNL1        0.0353
     22 H           4.2675    1.4003    0.0000 H       1  UNL1        0.0353
     23 H           2.9132    1.5800    0.0000 H       1  UNL1        0.0621
     24 H           7.2641   -0.1946    0.0000 H       1  UNL1        0.0623
     25 H           5.8612    2.2354    0.0000 H       1  UNL1        0.0623
     26 H           1.4643    0.7583    0.0000 H       1  UNL1        0.0619
     27 H           1.4643   -0.9075    0.0000 H       1  UNL1        0.0654
     28 H           8.6671    0.6154    0.0000 H       1  UNL1        0.0654
     29 H           7.2641    3.0454    0.0000 H       1  UNL1        0.0654
     30 H           2.3843   -2.4254    0.0000 H       1  UNL1        0.2922
     31 H           9.5331    2.1154    0.0000 H       1  UNL1        0.2921
@<TRIPOS>BOND
     1     1     5    1
     2     1    10    1
     3     2    12    1
     4     2    30    1
     5     3    10    2
     6     4    19    1
     7     4    31    1
     8     5     6    1
     9     5     8    1
    10     5    20    1
    11     6     7    1
    12     6    21    1
    13     6    22    1
    14     7     9   ar
    15     7    11   ar
    16     8    13   ar
    17     8    14   ar
    18     9    10    1
    19     9    12   ar
    20    11    15   ar
    21    11    23    1
    22    12    16   ar
    23    13    17   ar
    24    13    24    1
    25    14    18   ar
    26    14    25    1
    27    15    16   ar
    28    15    26    1
    29    16    27    1
    30    17    19   ar
    31    17    28    1
    32    18    19   ar
    33    18    29    1
