@<TRIPOS>MOLECULE
IMPHY016626
 27 28 0 0 0
SMALL
GASTEIGER

@<TRIPOS>ATOM
      1 S           7.5723    0.9120    0.0000 S.2     1  UNL1       -0.0589
      2 O           4.5032    0.2397    0.0000 O.2     1  UNL1       -0.3986
      3 O           2.0000   -0.7082    0.0000 O.co2   1  UNL1       -0.5735
      4 O           2.5352    0.9391    0.0000 O.2     1  UNL1        0.0446
      5 N           9.5755    0.3210    0.0000 N.3     1  UNL1       -0.2338
      6 N           8.8324   -0.3481    0.0000 N.pl3   1  UNL1       -0.2570
      7 N           7.0723   -0.6269    0.0000 N.ar    1  UNL1       -0.2208
      8 N           2.7431   -0.0391    0.0000 N.pl3   1  UNL1        0.1186
      9 C           6.2633   -0.0391    0.0000 C.ar    1  UNL1        0.1154
     10 C           5.3122   -0.3481    0.0000 C.ar    1  UNL1        0.1608
     11 C           7.8813   -0.0391    0.0000 C.ar    1  UNL1        0.1727
     12 C           5.0032   -1.2992    0.0000 C.ar    1  UNL1       -0.0072
     13 C           6.5723    0.9120    0.0000 C.ar    1  UNL1        0.0080
     14 C           3.6942   -0.3481    0.0000 C.ar    1  UNL1        0.4380
     15 C           4.0032   -1.2992    0.0000 C.ar    1  UNL1        0.0595
     16 C          10.5266    0.0120    0.0000 C.3     1  UNL1        0.0048
     17 C           9.3676    1.2992    0.0000 C.3     1  UNL1        0.0048
     18 H           8.9613   -0.9546    0.0000 H       1  UNL1        0.1684
     19 H           5.3676   -1.8008    0.0000 H       1  UNL1        0.0658
     20 H           6.2079    1.4136    0.0000 H       1  UNL1        0.0717
     21 H           3.6388   -1.8008    0.0000 H       1  UNL1        0.0722
     22 H          10.3350   -0.5777    0.0000 H       1  UNL1        0.0407
     23 H          11.1162   -0.1796    0.0000 H       1  UNL1        0.0407
     24 H          10.7182    0.6017    0.0000 H       1  UNL1        0.0407
     25 H           9.9741    1.4281    0.0000 H       1  UNL1        0.0407
     26 H           9.2387    1.9056    0.0000 H       1  UNL1        0.0407
     27 H           8.7612    1.1703    0.0000 H       1  UNL1        0.0407
@<TRIPOS>UNITY_ATOM_ATTR
3 1
charge -1
8 1
charge 1
@<TRIPOS>BOND
     1     1    11   ar
     2     1    13   ar
     3     2    10   ar
     4     2    14   ar
     5     3     8    1
     6     4     8    2
     7     5     6    1
     8     5    16    1
     9     5    17    1
    10     6    11    1
    11     6    18    1
    12     7     9   ar
    13     7    11   ar
    14     8    14    1
    15     9    10    1
    16     9    13   ar
    17    10    12   ar
    18    12    15   ar
    19    12    19    1
    20    13    20    1
    21    14    15   ar
    22    15    21    1
    23    16    22    1
    24    16    23    1
    25    16    24    1
    26    17    25    1
    27    17    26    1
    28    17    27    1
