@<TRIPOS>MOLECULE
IMPHY002036
 87 93 0 0 0
SMALL
GASTEIGER

@<TRIPOS>ATOM
      1 O           4.0992    0.2093    0.0000 O.3     1  UNL1       -0.3810
      2 O           3.6580    1.0474    0.0000 O.3     1  UNL1       -0.3851
      3 O           5.1755   -0.1215    0.0000 O.3     1  UNL1       -0.3764
      4 O           6.9982    3.6404    0.0000 O.3     1  UNL1       -0.3791
      5 O           3.2818    3.3888    0.0000 O.3     1  UNL1       -0.4608
      6 O           2.8805    4.0983    0.0000 O.3     1  UNL1       -0.3793
      7 O           7.8642   -0.5948    0.0000 O.3     1  UNL1       -0.4602
      8 O           2.2848    1.9725    0.0000 O.2     1  UNL1       -0.2512
      9 O           6.9982   -2.0948    0.0000 O.2     1  UNL1       -0.2449
     10 O           8.7302   -5.0948    0.0000 O.2     1  UNL1       -0.2758
     11 N           8.1935    1.8113    0.0000 N.2     1  UNL1       -0.2881
     12 N           7.8642   -3.5948    0.0000 N.am    1  UNL1       -0.2850
     13 C           6.2468    2.2066    0.0000 C.3     1  UNL1        0.0315
     14 C           5.5685    2.7475    0.0000 C.3     1  UNL1       -0.0212
     15 C           6.2468    1.3390    0.0000 C.3     1  UNL1        0.0120
     16 C           4.7227    0.9911    0.0000 C.3     1  UNL1        0.1438
     17 C           4.7227    2.5544    0.0000 C.3     1  UNL1        0.0317
     18 C           7.2488    2.1005    0.0000 C.3     1  UNL1        0.0928
     19 C           4.3463    1.7728    0.0000 C.3     1  UNL1        0.1079
     20 C           5.5685    0.7981    0.0000 C.3     1  UNL1        0.0961
     21 C           6.9982    0.9052    0.0000 C.3     1  UNL1        0.0457
     22 C           5.6463    3.6116    0.0000 C.3     1  UNL1       -0.0405
     23 C           4.8486    3.9526    0.0000 C.3     1  UNL1        0.0231
     24 C           6.9982    2.6404    0.0000 C.3     1  UNL1        0.0666
     25 C           4.2777    3.2992    0.0000 C.3     1  UNL1        0.1140
     26 C           3.7014    2.0427    0.0000 C.3     1  UNL1        0.0060
     27 C           3.7014    3.5272    0.0000 C.3     1  UNL1        0.0672
     28 C           7.7495    1.3390    0.0000 C.3     1  UNL1       -0.0367
     29 C           7.7495    2.2066    0.0000 C.3     1  UNL1       -0.0251
     30 C           8.1935    1.0594    0.0000 C.2     1  UNL1        0.0099
     31 C           6.9982   -0.0948    0.0000 C.3     1  UNL1        0.1036
     32 C           5.7753   -0.9216    0.0000 C.3     1  UNL1        0.0369
     33 C           7.8642    4.1404    0.0000 C.3     1  UNL1        0.0368
     34 C           2.3744    2.9685    0.0000 C.2     1  UNL1        0.3042
     35 C           2.9647    5.0948    0.0000 C.3     1  UNL1        0.0368
     36 C           7.8642   -1.5948    0.0000 C.2     1  UNL1        0.3410
     37 C           1.5567    3.5441    0.0000 C.3     1  UNL1        0.0332
     38 C           8.7302   -2.0948    0.0000 C.ar    1  UNL1        0.0801
     39 C           8.7302   -3.0948    0.0000 C.ar    1  UNL1        0.0474
     40 C           9.5962   -1.5948    0.0000 C.ar    1  UNL1       -0.0460
     41 C           9.5962   -3.5948    0.0000 C.ar    1  UNL1       -0.0397
     42 C          10.4623   -2.0948    0.0000 C.ar    1  UNL1       -0.0609
     43 C          10.4623   -3.0948    0.0000 C.ar    1  UNL1       -0.0600
     44 C           7.8642   -4.5948    0.0000 C.2     1  UNL1        0.2141
     45 C           6.9982   -5.0948    0.0000 C.3     1  UNL1        0.0125
     46 H           6.3501    3.0816    0.0000 H       1  UNL1        0.0313
     47 H           6.3104    0.4914    0.0000 H       1  UNL1        0.0344
     48 H           3.8736    2.5163    0.0000 H       1  UNL1        0.0368
     49 H           7.6933    2.8250    0.0000 H       1  UNL1        0.0581
     50 H           5.7689    0.2114    0.0000 H       1  UNL1        0.0629
     51 H           5.8290    4.2040    0.0000 H       1  UNL1        0.0273
     52 H           6.2546    3.4918    0.0000 H       1  UNL1        0.0273
     53 H           4.8693    4.8023    0.0000 H       1  UNL1        0.0362
     54 H           6.4612    2.9504    0.0000 H       1  UNL1        0.0602
     55 H           4.0469    3.8746    0.0000 H       1  UNL1        0.0741
     56 H           3.5394    1.4442    0.0000 H       1  UNL1        0.0319
     57 H           3.0868    2.1244    0.0000 H       1  UNL1        0.0319
     58 H           3.7796    4.1423    0.0000 H       1  UNL1        0.0601
     59 H           8.3601    1.4466    0.0000 H       1  UNL1        0.0276
     60 H           7.9616    0.7564    0.0000 H       1  UNL1        0.0276
     61 H           7.9616    2.7892    0.0000 H       1  UNL1        0.0291
     62 H           8.3601    2.0989    0.0000 H       1  UNL1        0.0291
     63 H           8.6591    0.6500    0.0000 H       1  UNL1        0.0785
     64 H           4.3257   -0.3678    0.0000 H       1  UNL1        0.2105
     65 H           6.7861   -0.6774    0.0000 H       1  UNL1        0.0707
     66 H           6.3876    0.0129    0.0000 H       1  UNL1        0.0707
     67 H           3.0635    0.8713    0.0000 H       1  UNL1        0.2103
     68 H           6.2714   -0.5497    0.0000 H       1  UNL1        0.0524
     69 H           6.1472   -1.4177    0.0000 H       1  UNL1        0.0524
     70 H           5.2792   -1.2935    0.0000 H       1  UNL1        0.0524
     71 H           7.5542    4.6773    0.0000 H       1  UNL1        0.0524
     72 H           8.4011    4.4504    0.0000 H       1  UNL1        0.0524
     73 H           8.1742    3.6034    0.0000 H       1  UNL1        0.0524
     74 H           2.3469    5.1470    0.0000 H       1  UNL1        0.0524
     75 H           3.0169    5.7126    0.0000 H       1  UNL1        0.0524
     76 H           3.5825    5.0426    0.0000 H       1  UNL1        0.0524
     77 H           1.1998    3.0371    0.0000 H       1  UNL1        0.0342
     78 H           1.0497    3.9010    0.0000 H       1  UNL1        0.0342
     79 H           1.9136    4.0511    0.0000 H       1  UNL1        0.0342
     80 H           9.5962   -0.9748    0.0000 H       1  UNL1        0.0626
     81 H           9.5962   -4.2148    0.0000 H       1  UNL1        0.0636
     82 H          10.9992   -1.7848    0.0000 H       1  UNL1        0.0618
     83 H           7.3273   -3.2848    0.0000 H       1  UNL1        0.1548
     84 H          10.9992   -3.4048    0.0000 H       1  UNL1        0.0618
     85 H           7.3082   -5.6317    0.0000 H       1  UNL1        0.0323
     86 H           6.4612   -5.4048    0.0000 H       1  UNL1        0.0323
     87 H           6.6882   -4.5578    0.0000 H       1  UNL1        0.0323
@<TRIPOS>BOND
     1    16     1    1
     2     1    64    1
     3    19     2    1
     4     2    67    1
     5    20     3    1
     6     3    32    1
     7    24     4    1
     8     4    33    1
     9    25     5    1
    10     5    34    1
    11    27     6    1
    12     6    35    1
    13     7    31    1
    14     7    36    1
    15     8    34    2
    16     9    36    2
    17    10    44    2
    18    11    18    1
    19    11    30    2
    20    12    39    1
    21    12    44   am
    22    12    83    1
    23    13    14    1
    24    13    15    1
    25    13    18    1
    26    13    24    1
    27    14    17    1
    28    14    22    1
    29    14    46    1
    30    15    20    1
    31    15    21    1
    32    15    47    1
    33    16    18    1
    34    16    19    1
    35    16    20    1
    36    17    19    1
    37    17    25    1
    38    17    48    1
    39    18    49    1
    40    19    26    1
    41    20    50    1
    42    21    28    1
    43    21    30    1
    44    21    31    1
    45    22    23    1
    46    22    51    1
    47    22    52    1
    48    23    25    1
    49    23    27    1
    50    23    53    1
    51    24    29    1
    52    24    54    1
    53    25    55    1
    54    26    27    1
    55    26    56    1
    56    26    57    1
    57    27    58    1
    58    28    29    1
    59    28    59    1
    60    28    60    1
    61    29    61    1
    62    29    62    1
    63    30    63    1
    64    31    65    1
    65    31    66    1
    66    32    68    1
    67    32    69    1
    68    32    70    1
    69    33    71    1
    70    33    72    1
    71    33    73    1
    72    34    37    1
    73    35    74    1
    74    35    75    1
    75    35    76    1
    76    36    38    1
    77    37    77    1
    78    37    78    1
    79    37    79    1
    80    38    39   ar
    81    38    40   ar
    82    39    41   ar
    83    40    42   ar
    84    40    80    1
    85    41    43   ar
    86    41    81    1
    87    42    43   ar
    88    42    82    1
    89    43    84    1
    90    44    45    1
    91    45    85    1
    92    45    86    1
    93    45    87    1
