@<TRIPOS>MOLECULE
IMPHY006966
 54 54 0 0 0
SMALL
GASTEIGER

@<TRIPOS>ATOM
      1 O           5.4641   -1.7500    0.0000 O.3     1  UNL1       -0.4609
      2 O           8.9282    0.2500    0.0000 O.3     1  UNL1       -0.4609
      3 O           6.3301   -0.2500    0.0000 O.2     1  UNL1       -0.2449
      4 O           7.1962    0.2500    0.0000 O.2     1  UNL1       -0.2449
      5 C           3.7320   -1.7500    0.0000 C.3     1  UNL1       -0.0072
      6 C           9.7942    1.7500    0.0000 C.3     1  UNL1       -0.0072
      7 C           9.7942    2.7500    0.0000 C.3     1  UNL1       -0.0500
      8 C          10.6603    1.2500    0.0000 C.3     1  UNL1       -0.0500
      9 C           2.8660   -1.2500    0.0000 C.3     1  UNL1       -0.0500
     10 C           3.7320   -2.7500    0.0000 C.3     1  UNL1       -0.0500
     11 C           4.5981   -1.2500    0.0000 C.3     1  UNL1        0.0956
     12 C           8.9282    1.2500    0.0000 C.3     1  UNL1        0.0956
     13 C           2.8660   -3.2500    0.0000 C.3     1  UNL1       -0.0649
     14 C           2.0000   -1.7500    0.0000 C.3     1  UNL1       -0.0649
     15 C          11.5263    1.7500    0.0000 C.3     1  UNL1       -0.0649
     16 C          10.6603    3.2500    0.0000 C.3     1  UNL1       -0.0649
     17 C           8.0622   -1.2500    0.0000 C.ar    1  UNL1        0.0729
     18 C           7.1962   -1.7500    0.0000 C.ar    1  UNL1        0.0729
     19 C           8.0622   -0.2500    0.0000 C.2     1  UNL1        0.3400
     20 C           6.3301   -1.2500    0.0000 C.2     1  UNL1        0.3400
     21 C           7.1962   -2.7500    0.0000 C.ar    1  UNL1       -0.0470
     22 C           8.9282   -1.7500    0.0000 C.ar    1  UNL1       -0.0470
     23 C           8.0622   -3.2500    0.0000 C.ar    1  UNL1       -0.0609
     24 C           8.9282   -2.7500    0.0000 C.ar    1  UNL1       -0.0609
     25 H           3.7320   -1.1300    0.0000 H       1  UNL1        0.0333
     26 H           9.2573    2.0600    0.0000 H       1  UNL1        0.0333
     27 H           3.9441   -3.3326    0.0000 H       1  UNL1        0.0266
     28 H           4.3426   -2.6423    0.0000 H       1  UNL1        0.0266
     29 H           3.2646   -0.7751    0.0000 H       1  UNL1        0.0266
     30 H           2.4675   -0.7751    0.0000 H       1  UNL1        0.0266
     31 H          10.2617    0.7751    0.0000 H       1  UNL1        0.0266
     32 H          11.0588    0.7751    0.0000 H       1  UNL1        0.0266
     33 H           9.5822    3.3326    0.0000 H       1  UNL1        0.0266
     34 H           9.1836    2.6423    0.0000 H       1  UNL1        0.0266
     35 H           4.9966   -0.7751    0.0000 H       1  UNL1        0.0700
     36 H           4.1996   -0.7751    0.0000 H       1  UNL1        0.0700
     37 H           8.7162    1.8326    0.0000 H       1  UNL1        0.0700
     38 H           8.3176    1.1423    0.0000 H       1  UNL1        0.0700
     39 H          10.9703    2.7131    0.0000 H       1  UNL1        0.0230
     40 H          11.1972    3.5600    0.0000 H       1  UNL1        0.0230
     41 H           2.5560   -2.7131    0.0000 H       1  UNL1        0.0230
     42 H           2.3291   -3.5600    0.0000 H       1  UNL1        0.0230
     43 H           3.1760   -3.7869    0.0000 H       1  UNL1        0.0230
     44 H           1.6900   -1.2131    0.0000 H       1  UNL1        0.0230
     45 H           1.4631   -2.0600    0.0000 H       1  UNL1        0.0230
     46 H           2.3100   -2.2869    0.0000 H       1  UNL1        0.0230
     47 H          11.8363    1.2131    0.0000 H       1  UNL1        0.0230
     48 H          12.0632    2.0600    0.0000 H       1  UNL1        0.0230
     49 H          11.2163    2.2869    0.0000 H       1  UNL1        0.0230
     50 H          10.3503    3.7869    0.0000 H       1  UNL1        0.0230
     51 H           6.6592   -3.0600    0.0000 H       1  UNL1        0.0626
     52 H           9.4651   -1.4400    0.0000 H       1  UNL1        0.0626
     53 H           8.0622   -3.8700    0.0000 H       1  UNL1        0.0618
     54 H           9.4651   -3.0600    0.0000 H       1  UNL1        0.0618
@<TRIPOS>BOND
     1     1    11    1
     2     1    20    1
     3     2    12    1
     4     2    19    1
     5     3    20    2
     6     4    19    2
     7     5     9    1
     8     5    10    1
     9     5    11    1
    10     5    25    1
    11     6     7    1
    12     6     8    1
    13     6    12    1
    14     6    26    1
    15     7    16    1
    16     7    33    1
    17     7    34    1
    18     8    15    1
    19     8    31    1
    20     8    32    1
    21     9    14    1
    22     9    29    1
    23     9    30    1
    24    10    13    1
    25    10    27    1
    26    10    28    1
    27    11    35    1
    28    11    36    1
    29    12    37    1
    30    12    38    1
    31    13    41    1
    32    13    42    1
    33    13    43    1
    34    14    44    1
    35    14    45    1
    36    14    46    1
    37    15    47    1
    38    15    48    1
    39    15    49    1
    40    16    39    1
    41    16    40    1
    42    16    50    1
    43    17    18   ar
    44    17    19    1
    45    17    22   ar
    46    18    20    1
    47    18    21   ar
    48    21    23   ar
    49    21    51    1
    50    22    24   ar
    51    22    52    1
    52    23    24   ar
    53    23    53    1
    54    24    54    1
