@<TRIPOS>MOLECULE
IMPHY015062
 27 28 0 0 0
SMALL
GASTEIGER

@<TRIPOS>ATOM
      1 O           2.3100   -0.1200    0.0000 O.3     1  UNL1       -0.3875
      2 C           4.8488    0.3800    0.0000 C.3     1  UNL1       -0.0171
      3 C           4.8488   -0.6200    0.0000 C.3     1  UNL1       -0.0112
      4 C           5.7154   -0.1200    0.0000 C.3     1  UNL1       -0.0394
      5 C           3.8978    0.6891    0.0000 C.3     1  UNL1       -0.0165
      6 C           4.8488    1.3800    0.0000 C.3     1  UNL1       -0.0404
      7 C           3.8978   -0.9290    0.0000 C.2     1  UNL1       -0.0449
      8 C           3.3100   -0.1200    0.0000 C.3     1  UNL1        0.0768
      9 C           5.7149    1.8800    0.0000 C.3     1  UNL1       -0.0621
     10 C           3.9828    1.8800    0.0000 C.3     1  UNL1       -0.0621
     11 C           3.5888   -1.8800    0.0000 C.2     1  UNL1       -0.0967
     12 H           5.1945   -1.3965    0.0000 H       1  UNL1        0.0352
     13 H           6.1139   -0.5949    0.0000 H       1  UNL1        0.0277
     14 H           6.1139    0.3550    0.0000 H       1  UNL1        0.0277
     15 H           4.1500    1.2554    0.0000 H       1  UNL1        0.0299
     16 H           3.3608    0.9991    0.0000 H       1  UNL1        0.0299
     17 H           4.3119    1.0700    0.0000 H       1  UNL1        0.0301
     18 H           3.0285    0.4325    0.0000 H       1  UNL1        0.0640
     19 H           6.0249    1.3431    0.0000 H       1  UNL1        0.0233
     20 H           6.2518    2.1900    0.0000 H       1  UNL1        0.0233
     21 H           5.4049    2.4170    0.0000 H       1  UNL1        0.0233
     22 H           4.2928    2.4170    0.0000 H       1  UNL1        0.0233
     23 H           3.4459    2.1900    0.0000 H       1  UNL1        0.0233
     24 H           3.6728    1.3431    0.0000 H       1  UNL1        0.0233
     25 H           2.9823   -2.0089    0.0000 H       1  UNL1        0.0535
     26 H           4.0036   -2.3408    0.0000 H       1  UNL1        0.0535
     27 H           2.0000   -0.6569    0.0000 H       1  UNL1        0.2102
@<TRIPOS>BOND
     1     8     1    1
     2     1    27    1
     3     2     3    1
     4     2     4    1
     5     2     5    1
     6     2     6    1
     7     3     4    1
     8     3     7    1
     9     3    12    1
    10     4    13    1
    11     4    14    1
    12     5     8    1
    13     5    15    1
    14     5    16    1
    15     6     9    1
    16     6    10    1
    17     6    17    1
    18     7     8    1
    19     7    11    2
    20     8    18    1
    21     9    19    1
    22     9    20    1
    23     9    21    1
    24    10    22    1
    25    10    23    1
    26    10    24    1
    27    11    25    1
    28    11    26    1
