@<TRIPOS>MOLECULE
IMPHY004849
 44 48 0 0 0
SMALL
GASTEIGER

@<TRIPOS>ATOM
      1 O           4.6202    1.0386    0.0000 O.3     1  UNL1       -0.4814
      2 O           6.4122    0.0039    0.0000 O.3     1  UNL1       -0.4846
      3 O           2.0000   -1.4998    0.0000 O.2     1  UNL1       -0.2672
      4 O           8.9707    4.5797    0.0000 O.3     1  UNL1       -0.5068
      5 N           2.8522   -3.0514    0.0000 N.ar    1  UNL1       -0.3216
      6 C           5.5182    1.5663    0.0000 C.3     1  UNL1        0.1381
      7 C           5.5143    2.5663    0.0000 C.3     1  UNL1        0.0128
      8 C           6.4203    1.0455    0.0000 C.3     1  UNL1        0.1268
      9 C           4.6362   -0.0029    0.0000 C.ar    1  UNL1        0.1633
     10 C           5.5022   -0.5029    0.0000 C.ar    1  UNL1        0.1627
     11 C           4.6362   -2.0029    0.0000 C.ar    1  UNL1        0.0001
     12 C           3.7702   -1.5029    0.0000 C.ar    1  UNL1        0.0507
     13 C           5.5022   -1.5029    0.0000 C.ar    1  UNL1       -0.0078
     14 C           3.7702   -0.5029    0.0000 C.ar    1  UNL1       -0.0034
     15 C           4.6523   -3.0444    0.0000 C.ar    1  UNL1        0.0064
     16 C           6.3784    3.0697    0.0000 C.ar    1  UNL1       -0.0435
     17 C           3.7542   -3.5722    0.0000 C.ar    1  UNL1        0.0498
     18 C           2.8602   -2.0098    0.0000 C.ar    1  UNL1        0.2570
     19 C           5.6042   -3.5651    0.0000 C.ar    1  UNL1       -0.0520
     20 C           7.2464    2.5730    0.0000 C.ar    1  UNL1       -0.0550
     21 C           6.3746    4.0696    0.0000 C.ar    1  UNL1       -0.0550
     22 C           3.7459   -4.6572    0.0000 C.ar    1  UNL1       -0.0377
     23 C           5.6209   -4.6499    0.0000 C.ar    1  UNL1       -0.0611
     24 C           4.6855   -5.1996    0.0000 C.ar    1  UNL1       -0.0598
     25 C           8.1105    3.0763    0.0000 C.ar    1  UNL1       -0.0199
     26 C           7.2387    4.5730    0.0000 C.ar    1  UNL1       -0.0199
     27 C           8.1066    4.0763    0.0000 C.ar    1  UNL1        0.1169
     28 H           4.9795    1.8732    0.0000 H       1  UNL1        0.0771
     29 H           5.3000    3.1481    0.0000 H       1  UNL1        0.0350
     30 H           4.9042    2.4563    0.0000 H       1  UNL1        0.0350
     31 H           7.0303    0.9347    0.0000 H       1  UNL1        0.0734
     32 H           6.6338    1.6276    0.0000 H       1  UNL1        0.0734
     33 H           6.0392   -1.8129    0.0000 H       1  UNL1        0.0662
     34 H           3.2332   -0.1929    0.0000 H       1  UNL1        0.0663
     35 H           2.3140   -3.3593    0.0000 H       1  UNL1        0.1689
     36 H           6.1351   -3.2448    0.0000 H       1  UNL1        0.0624
     37 H           7.2488    1.9530    0.0000 H       1  UNL1        0.0621
     38 H           5.8364    4.3776    0.0000 H       1  UNL1        0.0621
     39 H           3.2077   -4.9651    0.0000 H       1  UNL1        0.0638
     40 H           6.1614   -4.9537    0.0000 H       1  UNL1        0.0618
     41 H           4.6879   -5.8196    0.0000 H       1  UNL1        0.0618
     42 H           8.6486    2.7684    0.0000 H       1  UNL1        0.0654
     43 H           7.2363    5.1930    0.0000 H       1  UNL1        0.0654
     44 H           8.9683    5.1996    0.0000 H       1  UNL1        0.2921
@<TRIPOS>BOND
     1     1     6    1
     2     1     9    1
     3     2     8    1
     4     2    10    1
     5     3    18    2
     6     4    27    1
     7     4    44    1
     8     5    17   ar
     9     5    18   ar
    10     5    35    1
    11     6     7    1
    12     6     8    1
    13     6    28    1
    14     7    16    1
    15     7    29    1
    16     7    30    1
    17     8    31    1
    18     8    32    1
    19     9    10   ar
    20     9    14   ar
    21    10    13   ar
    22    11    12   ar
    23    11    13   ar
    24    11    15   ar
    25    12    14   ar
    26    12    18   ar
    27    13    33    1
    28    14    34    1
    29    15    17   ar
    30    15    19   ar
    31    16    20   ar
    32    16    21   ar
    33    17    22   ar
    34    19    23   ar
    35    19    36    1
    36    20    25   ar
    37    20    37    1
    38    21    26   ar
    39    21    38    1
    40    22    24   ar
    41    22    39    1
    42    23    24   ar
    43    23    40    1
    44    24    41    1
    45    25    27   ar
    46    25    42    1
    47    26    27   ar
    48    26    43    1
