@<TRIPOS>MOLECULE
IMPHY009766
 80 85 0 0 0
SMALL
GASTEIGER

@<TRIPOS>ATOM
      1 O           5.8259   -2.1110    0.0000 O.3     1  UNL1       -0.4606
      2 O           5.1770   -3.7169    0.0000 O.2     1  UNL1       -0.2512
      3 C           5.2996    0.0000    0.0000 C.3     1  UNL1        0.0084
      4 C           4.6568   -0.7660    0.0000 C.3     1  UNL1        0.0274
      5 C           4.6568    0.7660    0.0000 C.3     1  UNL1       -0.0096
      6 C           7.6084    1.2724    0.0000 C.3     1  UNL1       -0.0277
      7 C           5.5752    0.9613    0.0000 C.3     1  UNL1       -0.0385
      8 C           8.7486    0.3153    0.0000 C.3     1  UNL1       -0.0105
      9 C           6.1286   -0.5592    0.0000 C.2     1  UNL1       -0.0654
     10 C           7.3496    0.3065    0.0000 C.2     1  UNL1       -0.0638
     11 C           3.6676   -2.5876    0.0000 C.3     1  UNL1        0.0093
     12 C           4.8987   -1.7363    0.0000 C.3     1  UNL1        0.1142
     13 C           2.6714    2.5005    0.0000 C.3     1  UNL1       -0.0279
     14 C           6.8718    2.2550    0.0000 C.3     1  UNL1       -0.0273
     15 C           3.6592    0.6963    0.0000 C.3     1  UNL1       -0.0418
     16 C           3.1809   -3.8992    0.0000 C.3     1  UNL1       -0.0071
     17 C           3.1809    3.8992    0.0000 C.3     1  UNL1       -0.0105
     18 C           2.6714   -2.5005    0.0000 C.2     1  UNL1       -0.0637
     19 C           3.6592   -0.6963    0.0000 C.2     1  UNL1       -0.0654
     20 C           4.8987    1.7363    0.0000 C.2     1  UNL1       -0.0689
     21 C           3.6676    2.5876    0.0000 C.2     1  UNL1       -0.0641
     22 C           2.0000   -1.4722    0.0000 C.3     1  UNL1       -0.0240
     23 C           2.0000    1.4723    0.0000 C.3     1  UNL1       -0.0273
     24 C           9.6146    0.8153    0.0000 C.3     1  UNL1       -0.0558
     25 C           9.2486   -0.5507    0.0000 C.3     1  UNL1       -0.0558
     26 C           6.1635   -1.5586    0.0000 C.3     1  UNL1       -0.0429
     27 C           2.4148   -4.5420    0.0000 C.3     1  UNL1       -0.0557
     28 C           3.8236   -4.6652    0.0000 C.3     1  UNL1       -0.0557
     29 C           2.4148    4.5420    0.0000 C.3     1  UNL1       -0.0558
     30 C           3.8236    4.6652    0.0000 C.3     1  UNL1       -0.0558
     31 C           3.1293    0.1518    0.0000 C.3     1  UNL1       -0.0431
     32 C           5.8259    2.1110    0.0000 C.3     1  UNL1       -0.0432
     33 C           5.9650   -3.1012    0.0000 C.2     1  UNL1        0.3042
     34 C           6.8922   -3.4758    0.0000 C.3     1  UNL1        0.0332
     35 H           4.4145   -0.1953    0.0000 H       1  UNL1        0.0390
     36 H           4.4145    0.1953    0.0000 H       1  UNL1        0.0354
     37 H           8.0587    1.6986    0.0000 H       1  UNL1        0.0312
     38 H           5.5701    1.5812    0.0000 H       1  UNL1        0.0277
     39 H           4.9609    1.0450    0.0000 H       1  UNL1        0.0277
     40 H           3.0777   -2.7785    0.0000 H       1  UNL1        0.0348
     41 H           5.3666   -1.3296    0.0000 H       1  UNL1        0.0743
     42 H           2.1169    2.7779    0.0000 H       1  UNL1        0.0312
     43 H           7.1896    2.7874    0.0000 H       1  UNL1        0.0313
     44 H           6.2587    2.3470    0.0000 H       1  UNL1        0.0313
     45 H           3.0784    0.4796    0.0000 H       1  UNL1        0.0274
     46 H           3.7906    0.0904    0.0000 H       1  UNL1        0.0274
     47 H           2.1233   -0.8646    0.0000 H       1  UNL1        0.0314
     48 H           1.3911   -1.5888    0.0000 H       1  UNL1        0.0314
     49 H           1.3911    1.5889    0.0000 H       1  UNL1        0.0313
     50 H           2.1233    0.8647    0.0000 H       1  UNL1        0.0313
     51 H           9.9246    0.2784    0.0000 H       1  UNL1        0.0238
     52 H          10.1515    1.1253    0.0000 H       1  UNL1        0.0238
     53 H           9.3046    1.3522    0.0000 H       1  UNL1        0.0238
     54 H           8.7116   -0.8607    0.0000 H       1  UNL1        0.0238
     55 H           9.5586   -1.0877    0.0000 H       1  UNL1        0.0238
     56 H           9.7855   -0.2407    0.0000 H       1  UNL1        0.0238
     57 H           5.5439   -1.5802    0.0000 H       1  UNL1        0.0275
     58 H           6.1851   -2.1782    0.0000 H       1  UNL1        0.0275
     59 H           6.7831   -1.5370    0.0000 H       1  UNL1        0.0275
     60 H           2.0163   -4.0670    0.0000 H       1  UNL1        0.0238
     61 H           1.9399   -4.9405    0.0000 H       1  UNL1        0.0238
     62 H           2.8133   -5.0169    0.0000 H       1  UNL1        0.0238
     63 H           3.3487   -5.0638    0.0000 H       1  UNL1        0.0238
     64 H           4.2222   -5.1402    0.0000 H       1  UNL1        0.0238
     65 H           4.2986   -4.2667    0.0000 H       1  UNL1        0.0238
     66 H           2.8133    5.0169    0.0000 H       1  UNL1        0.0238
     67 H           4.2986    4.2667    0.0000 H       1  UNL1        0.0238
     68 H           4.2222    5.1402    0.0000 H       1  UNL1        0.0238
     69 H           3.3487    5.0638    0.0000 H       1  UNL1        0.0238
     70 H           1.9399    4.9405    0.0000 H       1  UNL1        0.0238
     71 H           2.0163    4.0670    0.0000 H       1  UNL1        0.0238
     72 H           3.6551    0.4803    0.0000 H       1  UNL1        0.0275
     73 H           2.8007    0.6776    0.0000 H       1  UNL1        0.0275
     74 H           2.6035   -0.1768    0.0000 H       1  UNL1        0.0275
     75 H           6.0581    1.5361    0.0000 H       1  UNL1        0.0275
     76 H           6.4007    2.3432    0.0000 H       1  UNL1        0.0275
     77 H           5.5936    2.6858    0.0000 H       1  UNL1        0.0275
     78 H           6.6600   -4.0507    0.0000 H       1  UNL1        0.0342
     79 H           7.4671   -3.7081    0.0000 H       1  UNL1        0.0342
     80 H           7.1245   -2.9010    0.0000 H       1  UNL1        0.0342
@<TRIPOS>BOND
     1     1    12    1
     2     1    33    1
     3     2    33    2
     4     3     4    1
     5     3     5    1
     6     3     7    1
     7     3     9    1
     8     4    12    1
     9     4    19    1
    10     4    35    1
    11     5    15    1
    12     5    20    1
    13     5    36    1
    14     6     7    1
    15     6     8    1
    16     6    14    1
    17     6    37    1
    18     7    38    1
    19     7    39    1
    20     8    10    1
    21     8    24    1
    22     8    25    1
    23     9    10    2
    24     9    26    1
    25    10    14    1
    26    11    12    1
    27    11    16    1
    28    11    22    1
    29    11    40    1
    30    12    41    1
    31    13    15    1
    32    13    17    1
    33    13    23    1
    34    13    42    1
    35    14    43    1
    36    14    44    1
    37    15    45    1
    38    15    46    1
    39    16    18    1
    40    16    27    1
    41    16    28    1
    42    17    21    1
    43    17    29    1
    44    17    30    1
    45    18    19    2
    46    18    22    1
    47    19    31    1
    48    20    21    2
    49    20    32    1
    50    21    23    1
    51    22    47    1
    52    22    48    1
    53    23    49    1
    54    23    50    1
    55    24    51    1
    56    24    52    1
    57    24    53    1
    58    25    54    1
    59    25    55    1
    60    25    56    1
    61    26    57    1
    62    26    58    1
    63    26    59    1
    64    27    60    1
    65    27    61    1
    66    27    62    1
    67    28    63    1
    68    28    64    1
    69    28    65    1
    70    29    66    1
    71    29    70    1
    72    29    71    1
    73    30    67    1
    74    30    68    1
    75    30    69    1
    76    31    72    1
    77    31    73    1
    78    31    74    1
    79    32    75    1
    80    32    76    1
    81    32    77    1
    82    33    34    1
    83    34    78    1
    84    34    79    1
    85    34    80    1
