@<TRIPOS>MOLECULE
IMPHY007282
 57 60 0 0 0
SMALL
GASTEIGER

@<TRIPOS>ATOM
      1 O           2.8398   -1.9393    0.0000 O.3     1  UNL1       -0.4641
      2 O           3.3010   -3.6606    0.0000 O.2     1  UNL1       -0.2505
      3 O           8.8328   -2.5805    0.0000 O.3     1  UNL1       -0.4525
      4 O           8.8328   -0.9710    0.0000 O.3     1  UNL1       -0.4489
      5 O           7.0205    0.2243    0.0000 O.3     1  UNL1       -0.4913
      6 O           2.7431    1.9622    0.0000 O.3     1  UNL1       -0.4913
      7 O           6.1316    2.6825    0.0000 O.3     1  UNL1       -0.4913
      8 O           4.2294    3.3005    0.0000 O.3     1  UNL1       -0.4885
      9 C           4.3179   -1.2812    0.0000 C.3     1  UNL1        0.0105
     10 C           4.4225   -2.2757    0.0000 C.3     1  UNL1        0.0666
     11 C           3.3398   -1.0733    0.0000 C.3     1  UNL1        0.0963
     12 C           5.0611   -0.6121    0.0000 C.3     1  UNL1       -0.0208
     13 C           5.2885   -2.7757    0.0000 C.3     1  UNL1       -0.0141
     14 C           3.5089   -2.6825    0.0000 C.2     1  UNL1        0.3109
     15 C           4.8532    0.3661    0.0000 C.ar    1  UNL1       -0.0398
     16 C           6.1545   -2.2757    0.0000 C.ar    1  UNL1       -0.0394
     17 C           7.0205   -2.7757    0.0000 C.ar    1  UNL1       -0.0127
     18 C           6.1545   -1.2757    0.0000 C.ar    1  UNL1       -0.0129
     19 C           5.5963    1.0352    0.0000 C.ar    1  UNL1       -0.0129
     20 C           3.9021    0.6751    0.0000 C.ar    1  UNL1       -0.0129
     21 C           7.8866   -2.2757    0.0000 C.ar    1  UNL1        0.1702
     22 C           7.0205   -0.7757    0.0000 C.ar    1  UNL1        0.1656
     23 C           7.8866   -1.2757    0.0000 C.ar    1  UNL1        0.2075
     24 C           3.6942    1.6532    0.0000 C.ar    1  UNL1        0.1654
     25 C           5.3884    2.0133    0.0000 C.ar    1  UNL1        0.1654
     26 C           4.4374    2.3224    0.0000 C.ar    1  UNL1        0.2035
     27 C           9.4164   -1.7757    0.0000 C.3     1  UNL1        0.2334
     28 C           7.8866    0.7243    0.0000 C.3     1  UNL1        0.0790
     29 C           2.0000    1.2931    0.0000 C.3     1  UNL1        0.0790
     30 C           5.9236    3.6606    0.0000 C.3     1  UNL1        0.0790
     31 C           3.2784    3.6095    0.0000 C.3     1  UNL1        0.0791
     32 H           4.1575   -0.6823    0.0000 H       1  UNL1        0.0345
     33 H           4.3900   -2.8949    0.0000 H       1  UNL1        0.0420
     34 H           3.5314   -0.4836    0.0000 H       1  UNL1        0.0700
     35 H           2.7734   -0.8211    0.0000 H       1  UNL1        0.0700
     36 H           5.3896   -1.1379    0.0000 H       1  UNL1        0.0317
     37 H           5.6359   -0.3798    0.0000 H       1  UNL1        0.0317
     38 H           4.8900   -3.2507    0.0000 H       1  UNL1        0.0321
     39 H           5.6870   -3.2507    0.0000 H       1  UNL1        0.0321
     40 H           7.0205   -3.3957    0.0000 H       1  UNL1        0.0658
     41 H           5.6176   -0.9657    0.0000 H       1  UNL1        0.0658
     42 H           6.1860    0.8436    0.0000 H       1  UNL1        0.0658
     43 H           3.4414    0.2602    0.0000 H       1  UNL1        0.0658
     44 H           9.8773   -2.1905    0.0000 H       1  UNL1        0.1166
     45 H           9.8773   -1.3610    0.0000 H       1  UNL1        0.1166
     46 H           8.1966    0.1873    0.0000 H       1  UNL1        0.0660
     47 H           8.4235    1.0343    0.0000 H       1  UNL1        0.0660
     48 H           7.5766    1.2612    0.0000 H       1  UNL1        0.0660
     49 H           1.5851    1.7539    0.0000 H       1  UNL1        0.0660
     50 H           1.5392    0.8783    0.0000 H       1  UNL1        0.0660
     51 H           2.4149    0.8324    0.0000 H       1  UNL1        0.0660
     52 H           6.5301    3.7895    0.0000 H       1  UNL1        0.0660
     53 H           5.7947    4.2671    0.0000 H       1  UNL1        0.0660
     54 H           5.3172    3.5317    0.0000 H       1  UNL1        0.0660
     55 H           3.4700    4.1992    0.0000 H       1  UNL1        0.0660
     56 H           2.6887    3.8011    0.0000 H       1  UNL1        0.0660
     57 H           3.0868    3.0199    0.0000 H       1  UNL1        0.0660
@<TRIPOS>BOND
     1     1    11    1
     2     1    14    1
     3     2    14    2
     4     3    21    1
     5     3    27    1
     6     4    23    1
     7     4    27    1
     8     5    22    1
     9     5    28    1
    10     6    24    1
    11     6    29    1
    12     7    25    1
    13     7    30    1
    14     8    26    1
    15     8    31    1
    16     9    10    1
    17     9    11    1
    18     9    12    1
    19     9    32    1
    20    10    13    1
    21    10    14    1
    22    10    33    1
    23    11    34    1
    24    11    35    1
    25    12    15    1
    26    12    36    1
    27    12    37    1
    28    13    16    1
    29    13    38    1
    30    13    39    1
    31    15    19   ar
    32    15    20   ar
    33    16    17   ar
    34    16    18   ar
    35    17    21   ar
    36    17    40    1
    37    18    22   ar
    38    18    41    1
    39    19    25   ar
    40    19    42    1
    41    20    24   ar
    42    20    43    1
    43    21    23   ar
    44    22    23   ar
    45    24    26   ar
    46    25    26   ar
    47    27    44    1
    48    27    45    1
    49    28    46    1
    50    28    47    1
    51    28    48    1
    52    29    49    1
    53    29    50    1
    54    29    51    1
    55    30    52    1
    56    30    53    1
    57    30    54    1
    58    31    55    1
    59    31    56    1
    60    31    57    1
