@<TRIPOS>MOLECULE
IMPHY000367
 54 55 0 0 0
SMALL
GASTEIGER

@<TRIPOS>ATOM
      1 O           6.7312    3.2874    0.0000 O.3     1  UNL1       -0.4281
      2 O           8.4913    3.5662    0.0000 O.3     1  UNL1       -0.3416
      3 O           5.1434    2.4784    0.0000 O.2     1  UNL1       -0.2452
      4 O           2.5369   -3.9407    0.0000 O.3     1  UNL1       -0.4771
      5 O           4.2690   -3.9407    0.0000 O.2     1  UNL1       -0.2451
      6 C           5.1350   -0.4407    0.0000 C.3     1  UNL1       -0.0257
      7 C           6.0010   -0.9407    0.0000 C.3     1  UNL1       -0.0379
      8 C           5.4440    0.5104    0.0000 C.3     1  UNL1       -0.0429
      9 C           4.2690   -0.9407    0.0000 C.3     1  UNL1       -0.0288
     10 C           6.0010   -1.9407    0.0000 C.3     1  UNL1       -0.0460
     11 C           4.8260    0.5104    0.0000 C.3     1  UNL1       -0.0590
     12 C           6.8671   -0.4407    0.0000 C.3     1  UNL1       -0.0619
     13 C           6.4222    0.7183    0.0000 C.3     1  UNL1       -0.0205
     14 C           5.1350   -2.4407    0.0000 C.3     1  UNL1       -0.0272
     15 C           3.4030   -0.4407    0.0000 C.2     1  UNL1       -0.0835
     16 C           6.7312    1.6694    0.0000 C.2     1  UNL1        0.0386
     17 C           4.2690   -1.9407    0.0000 C.2     1  UNL1       -0.0405
     18 C           2.5369   -0.9407    0.0000 C.2     1  UNL1       -0.0649
     19 C           7.6822    1.9784    0.0000 C.2     1  UNL1       -0.0064
     20 C           3.4030   -2.4407    0.0000 C.2     1  UNL1        0.0614
     21 C           6.1434    2.4784    0.0000 C.2     1  UNL1        0.3374
     22 C           2.5369   -1.9407    0.0000 C.2     1  UNL1       -0.0478
     23 C           7.6822    2.9784    0.0000 C.3     1  UNL1        0.2254
     24 C           5.1350   -1.4407    0.0000 C.2     1  UNL1       -0.0947
     25 C           3.4030   -3.4407    0.0000 C.2     1  UNL1        0.3370
     26 C           8.3867    4.5607    0.0000 C.3     1  UNL1        0.0408
     27 H           6.5380   -1.2507    0.0000 H       1  UNL1        0.0304
     28 H           5.4224    1.1300    0.0000 H       1  UNL1        0.0274
     29 H           4.8301    0.5967    0.0000 H       1  UNL1        0.0274
     30 H           3.8705   -1.4156    0.0000 H       1  UNL1        0.0313
     31 H           4.6675   -1.4156    0.0000 H       1  UNL1        0.0313
     32 H           6.2131   -2.5233    0.0000 H       1  UNL1        0.0271
     33 H           6.6116   -1.8330    0.0000 H       1  UNL1        0.0271
     34 H           5.4156    0.7020    0.0000 H       1  UNL1        0.0235
     35 H           4.6344    1.1000    0.0000 H       1  UNL1        0.0235
     36 H           4.2363    0.3188    0.0000 H       1  UNL1        0.0235
     37 H           7.1771   -0.9776    0.0000 H       1  UNL1        0.0233
     38 H           7.4040   -0.1307    0.0000 H       1  UNL1        0.0233
     39 H           6.5571    0.0963    0.0000 H       1  UNL1        0.0233
     40 H           6.4438    0.0987    0.0000 H       1  UNL1        0.0315
     41 H           7.0361    0.6320    0.0000 H       1  UNL1        0.0315
     42 H           4.7365   -2.9156    0.0000 H       1  UNL1        0.0313
     43 H           5.5335   -2.9156    0.0000 H       1  UNL1        0.0313
     44 H           3.4030    0.1793    0.0000 H       1  UNL1        0.0572
     45 H           2.0000   -0.6307    0.0000 H       1  UNL1        0.0615
     46 H           8.1838    1.6139    0.0000 H       1  UNL1        0.0638
     47 H           2.0000   -2.2507    0.0000 H       1  UNL1        0.0626
     48 H           7.5853    3.5907    0.0000 H       1  UNL1        0.1107
     49 H           5.6720   -1.7507    0.0000 H       1  UNL1        0.0538
     50 H           5.1350   -0.8207    0.0000 H       1  UNL1        0.0538
     51 H           9.0033    4.6255    0.0000 H       1  UNL1        0.0525
     52 H           8.3219    5.1773    0.0000 H       1  UNL1        0.0525
     53 H           7.7701    4.4959    0.0000 H       1  UNL1        0.0525
     54 H           2.5369   -4.5607    0.0000 H       1  UNL1        0.2954
@<TRIPOS>BOND
     1     1    21    1
     2     1    23    1
     3     2    23    1
     4     2    26    1
     5     3    21    2
     6     4    25    1
     7     4    54    1
     8     5    25    2
     9     6     7    1
    10     6     8    1
    11     6     9    1
    12     6    11    1
    13     7    10    1
    14     7    12    1
    15     7    27    1
    16     8    13    1
    17     8    28    1
    18     8    29    1
    19     9    15    1
    20     9    30    1
    21     9    31    1
    22    10    14    1
    23    10    32    1
    24    10    33    1
    25    11    34    1
    26    11    35    1
    27    11    36    1
    28    12    37    1
    29    12    38    1
    30    12    39    1
    31    13    16    1
    32    13    40    1
    33    13    41    1
    34    14    17    1
    35    14    42    1
    36    14    43    1
    37    15    18    2
    38    15    44    1
    39    16    19    2
    40    16    21    1
    41    17    20    1
    42    17    24    2
    43    18    22    1
    44    18    45    1
    45    19    23    1
    46    19    46    1
    47    20    22    2
    48    20    25    1
    49    22    47    1
    50    23    48    1
    51    24    49    1
    52    24    50    1
    53    26    51    1
    54    26    52    1
    55    26    53    1
