@<TRIPOS>MOLECULE
IMPHY006582
 25 25 0 0 0
SMALL
GASTEIGER

@<TRIPOS>ATOM
      1 O           4.5981    1.9050    0.0000 O.3     1  UNL1       -0.4885
      2 O           2.8660    0.9050    0.0000 O.3     1  UNL1       -0.4912
      3 O           6.3301    0.9050    0.0000 O.3     1  UNL1       -0.4912
      4 O           4.5981   -2.0950    0.0000 O.3     1  UNL1       -0.5065
      5 C           4.5981    0.9050    0.0000 C.ar    1  UNL1        0.2037
      6 C           3.7320    0.4050    0.0000 C.ar    1  UNL1        0.1686
      7 C           5.4641    0.4050    0.0000 C.ar    1  UNL1        0.1686
      8 C           3.7320   -0.5950    0.0000 C.ar    1  UNL1        0.0254
      9 C           5.4641   -0.5950    0.0000 C.ar    1  UNL1        0.0254
     10 C           4.5981   -1.0950    0.0000 C.ar    1  UNL1        0.1240
     11 C           5.4641    2.4050    0.0000 C.3     1  UNL1        0.0791
     12 C           2.0000    0.4050    0.0000 C.3     1  UNL1        0.0790
     13 C           7.1962    0.4050    0.0000 C.3     1  UNL1        0.0790
     14 H           3.1951   -0.9050    0.0000 H       1  UNL1        0.0692
     15 H           6.0010   -0.9050    0.0000 H       1  UNL1        0.0692
     16 H           5.7741    1.8681    0.0000 H       1  UNL1        0.0660
     17 H           6.0010    2.7150    0.0000 H       1  UNL1        0.0660
     18 H           5.1541    2.9419    0.0000 H       1  UNL1        0.0660
     19 H           1.6900    0.9419    0.0000 H       1  UNL1        0.0660
     20 H           1.4631    0.0950    0.0000 H       1  UNL1        0.0660
     21 H           2.3100   -0.1319    0.0000 H       1  UNL1        0.0660
     22 H           6.8862   -0.1319    0.0000 H       1  UNL1        0.0660
     23 H           7.7331    0.0950    0.0000 H       1  UNL1        0.0660
     24 H           7.5062    0.9419    0.0000 H       1  UNL1        0.0660
     25 H           4.0611   -2.4050    0.0000 H       1  UNL1        0.2921
@<TRIPOS>BOND
     1     1     5    1
     2     1    11    1
     3     2     6    1
     4     2    12    1
     5     3     7    1
     6     3    13    1
     7     4    10    1
     8     4    25    1
     9     5     6   ar
    10     5     7   ar
    11     6     8   ar
    12     7     9   ar
    13     8    10   ar
    14     8    14    1
    15     9    10   ar
    16     9    15    1
    17    11    16    1
    18    11    17    1
    19    11    18    1
    20    12    19    1
    21    12    20    1
    22    12    21    1
    23    13    22    1
    24    13    23    1
    25    13    24    1
