@<TRIPOS>MOLECULE
IMPHY002797
 78 85 0 0 0
SMALL
GASTEIGER

@<TRIPOS>ATOM
      1 O           7.1098   -0.1319    0.0000 O.3     1  UNL1       -0.4445
      2 O           5.3777    0.8681    0.0000 O.3     1  UNL1       -0.4441
      3 O           3.6075   -0.1288    0.0000 O.3     1  UNL1       -0.4913
      4 O           8.8799    0.8650    0.0000 O.3     1  UNL1       -0.4913
      5 O           2.6840   -1.5336    0.0000 O.3     1  UNL1       -0.4523
      6 O           2.2280   -3.5912    0.0000 O.3     1  UNL1       -0.4914
      7 N           7.2284   -3.2789    0.0000 N.3     1  UNL1       -0.2977
      8 N           5.2590    4.0151    0.0000 N.2     1  UNL1       -0.2868
      9 C           7.2117   -2.1940    0.0000 C.3     1  UNL1        0.0432
     10 C           6.2598   -1.6734    0.0000 C.ar    1  UNL1        0.0194
     11 C           6.2930   -3.8286    0.0000 C.3     1  UNL1        0.0032
     12 C           5.3618   -2.2012    0.0000 C.ar    1  UNL1       -0.0343
     13 C           5.3534   -3.2861    0.0000 C.3     1  UNL1       -0.0143
     14 C           6.3319   -2.7518    0.0000 C.3     1  UNL1       -0.0076
     15 C           6.2437   -0.6319    0.0000 C.ar    1  UNL1        0.1794
     16 C           4.4597   -1.6803    0.0000 C.ar    1  UNL1       -0.0125
     17 C           5.3777   -0.1319    0.0000 C.ar    1  UNL1        0.2123
     18 C           8.1002   -3.7688    0.0000 C.3     1  UNL1       -0.0122
     19 C           5.3130   -2.9690    0.0000 C.ar    1  UNL1       -0.0419
     20 C           4.4677   -0.6387    0.0000 C.ar    1  UNL1        0.1661
     21 C           6.2437    1.3681    0.0000 C.ar    1  UNL1        0.1835
     22 C           7.1098    0.8681    0.0000 C.ar    1  UNL1        0.2126
     23 C           6.2277    2.4096    0.0000 C.ar    1  UNL1        0.0455
     24 C           7.1257    2.9374    0.0000 C.ar    1  UNL1       -0.0296
     25 C           4.2822   -2.8186    0.0000 C.ar    1  UNL1       -0.0124
     26 C           5.2757    2.9302    0.0000 C.2     1  UNL1        0.0512
     27 C           8.0198    1.3749    0.0000 C.ar    1  UNL1        0.1661
     28 C           7.1341    4.0223    0.0000 C.3     1  UNL1       -0.0072
     29 C           4.8688   -3.8640    0.0000 C.ar    1  UNL1       -0.0548
     30 C           8.0278    2.4166    0.0000 C.ar    1  UNL1       -0.0122
     31 C           6.1944    4.5648    0.0000 C.3     1  UNL1        0.0440
     32 C           4.2469    2.7668    0.0000 C.3     1  UNL1        0.0151
     33 C           3.3679   -2.3194    0.0000 C.ar    1  UNL1        0.1701
     34 C           3.8815   -4.0184    0.0000 C.ar    1  UNL1       -0.0160
     35 C           3.1852   -3.3018    0.0000 C.ar    1  UNL1        0.1621
     36 C           3.3390    2.2561    0.0000 C.ar    1  UNL1       -0.0414
     37 C           3.6191    0.8712    0.0000 C.3     1  UNL1        0.0790
     38 C           2.3159   -0.5591    0.0000 C.ar    1  UNL1        0.1286
     39 C           3.0686    1.2930    0.0000 C.ar    1  UNL1       -0.0547
     40 C           2.6651    1.4617    0.0000 C.ar    1  UNL1       -0.0547
     41 C           2.7269    0.3529    0.0000 C.ar    1  UNL1       -0.0191
     42 C           2.3093    0.4826    0.0000 C.ar    1  UNL1       -0.0191
     43 C           9.7517    1.3549    0.0000 C.3     1  UNL1        0.0790
     44 C           2.0000   -4.5648    0.0000 C.3     1  UNL1        0.0790
     45 H           7.7426   -1.8737    0.0000 H       1  UNL1        0.0516
     46 H           5.8957   -4.3046    0.0000 H       1  UNL1        0.0430
     47 H           6.6940   -4.3015    0.0000 H       1  UNL1        0.0430
     48 H           4.7434   -3.1753    0.0000 H       1  UNL1        0.0326
     49 H           5.1398   -3.8682    0.0000 H       1  UNL1        0.0326
     50 H           6.2116   -3.3600    0.0000 H       1  UNL1        0.0332
     51 H           6.0976   -2.1777    0.0000 H       1  UNL1        0.0332
     52 H           3.9216   -1.9883    0.0000 H       1  UNL1        0.0658
     53 H           7.7964   -4.3093    0.0000 H       1  UNL1        0.0391
     54 H           8.6407   -4.0726    0.0000 H       1  UNL1        0.0391
     55 H           8.4040   -3.2284    0.0000 H       1  UNL1        0.0391
     56 H           4.0858   -3.4067    0.0000 H       1  UNL1        0.0658
     57 H           7.7441    3.9115    0.0000 H       1  UNL1        0.0331
     58 H           7.3476    4.6044    0.0000 H       1  UNL1        0.0331
     59 H           5.2353   -4.3640    0.0000 H       1  UNL1        0.0621
     60 H           8.5659    2.7245    0.0000 H       1  UNL1        0.0658
     61 H           6.5918    5.0408    0.0000 H       1  UNL1        0.0511
     62 H           5.7935    5.0377    0.0000 H       1  UNL1        0.0511
     63 H           4.3990    3.3679    0.0000 H       1  UNL1        0.0377
     64 H           4.4507    2.1813    0.0000 H       1  UNL1        0.0377
     65 H           3.6852   -4.6065    0.0000 H       1  UNL1        0.0655
     66 H           4.2390    0.8640    0.0000 H       1  UNL1        0.0660
     67 H           3.6262    1.4911    0.0000 H       1  UNL1        0.0660
     68 H           2.9991    0.8783    0.0000 H       1  UNL1        0.0660
     69 H           3.6588    1.1032    0.0000 H       1  UNL1        0.0622
     70 H           2.1289    1.7730    0.0000 H       1  UNL1        0.0622
     71 H           3.3013    0.1194    0.0000 H       1  UNL1        0.0654
     72 H           1.6983    0.5882    0.0000 H       1  UNL1        0.0654
     73 H          10.0555    0.8144    0.0000 H       1  UNL1        0.0660
     74 H          10.2922    1.6587    0.0000 H       1  UNL1        0.0660
     75 H           9.4479    1.8954    0.0000 H       1  UNL1        0.0660
     76 H           1.3963   -4.4235    0.0000 H       1  UNL1        0.0660
     77 H           1.8586   -5.1685    0.0000 H       1  UNL1        0.0660
     78 H           2.6037   -4.7062    0.0000 H       1  UNL1        0.0660
@<TRIPOS>BOND
     1     1    15    1
     2     1    22    1
     3     2    17    1
     4     2    21    1
     5     3    20    1
     6     3    37    1
     7     4    27    1
     8     4    43    1
     9     5    33    1
    10     5    38    1
    11     6    35    1
    12     6    44    1
    13     7     9    1
    14     7    11    1
    15     7    18    1
    16     8    26    2
    17     8    31    1
    18     9    10    1
    19     9    14    1
    20     9    45    1
    21    10    12   ar
    22    10    15   ar
    23    11    13    1
    24    11    46    1
    25    11    47    1
    26    12    13    1
    27    12    16   ar
    28    13    48    1
    29    13    49    1
    30    14    19    1
    31    14    50    1
    32    14    51    1
    33    15    17   ar
    34    16    20   ar
    35    16    52    1
    36    17    20   ar
    37    18    53    1
    38    18    54    1
    39    18    55    1
    40    19    25   ar
    41    19    29   ar
    42    21    22   ar
    43    21    23   ar
    44    22    27   ar
    45    23    24   ar
    46    23    26    1
    47    24    28    1
    48    24    30   ar
    49    25    33   ar
    50    25    56    1
    51    26    32    1
    52    27    30   ar
    53    28    31    1
    54    28    57    1
    55    28    58    1
    56    29    34   ar
    57    29    59    1
    58    30    60    1
    59    31    61    1
    60    31    62    1
    61    32    36    1
    62    32    63    1
    63    32    64    1
    64    33    35   ar
    65    34    35   ar
    66    34    65    1
    67    36    39   ar
    68    36    40   ar
    69    37    66    1
    70    37    67    1
    71    37    68    1
    72    38    41   ar
    73    38    42   ar
    74    39    41   ar
    75    39    69    1
    76    40    42   ar
    77    40    70    1
    78    41    71    1
    79    42    72    1
    80    43    73    1
    81    43    74    1
    82    43    75    1
    83    44    76    1
    84    44    77    1
    85    44    78    1
