@<TRIPOS>MOLECULE
IMPHY013183
 47 50 0 0 0
SMALL
GASTEIGER

@<TRIPOS>ATOM
      1 O          10.8026   -0.6900    0.0000 O.3     1  UNL1       -0.4526
      2 O          10.8026   -2.2995    0.0000 O.3     1  UNL1       -0.4526
      3 O           4.5884   -1.9672    0.0000 O.3     1  UNL1       -0.5060
      4 O           4.6038    2.0327    0.0000 O.3     1  UNL1       -0.4914
      5 O           2.8680    1.0394    0.0000 O.3     1  UNL1       -0.4913
      6 O           8.1253    2.0298    0.0000 O.2     1  UNL1       -0.2790
      7 N           7.2419    0.5399    0.0000 N.am    1  UNL1       -0.2759
      8 C           8.1243   -0.9947    0.0000 C.ar    1  UNL1        0.0078
      9 C           7.2304   -0.4601    0.0000 C.ar    1  UNL1        0.0514
     10 C           6.3243   -0.9739    0.0000 C.ar    1  UNL1        0.0077
     11 C           8.1243   -1.9947    0.0000 C.ar    1  UNL1       -0.0124
     12 C           8.9904   -0.4947    0.0000 C.ar    1  UNL1       -0.0066
     13 C           5.4602   -0.4706    0.0000 C.ar    1  UNL1        0.0290
     14 C           6.3243   -2.0156    0.0000 C.ar    1  UNL1       -0.0515
     15 C           9.8564   -0.9947    0.0000 C.ar    1  UNL1        0.1669
     16 C           7.2304   -2.5294    0.0000 C.ar    1  UNL1       -0.0532
     17 C           8.9904   -2.4947    0.0000 C.ar    1  UNL1       -0.0084
     18 C           9.8564   -1.9947    0.0000 C.ar    1  UNL1        0.1668
     19 C           4.5923   -0.9672    0.0000 C.ar    1  UNL1        0.1283
     20 C           5.4641    0.5294    0.0000 C.ar    1  UNL1       -0.0050
     21 C          11.3862   -1.4947    0.0000 C.3     1  UNL1        0.2332
     22 C           6.3818    1.0498    0.0000 C.3     1  UNL1        0.0081
     23 C           4.6000    1.0327    0.0000 C.ar    1  UNL1        0.1623
     24 C           3.7282   -0.4639    0.0000 C.ar    1  UNL1        0.0258
     25 C           3.7320    0.5361    0.0000 C.ar    1  UNL1        0.1650
     26 C           8.1137    1.0298    0.0000 C.2     1  UNL1        0.2065
     27 C           5.4718    2.5294    0.0000 C.3     1  UNL1        0.0790
     28 C           2.0000    0.5428    0.0000 C.3     1  UNL1        0.0790
     29 H           8.9904    0.1253    0.0000 H       1  UNL1        0.0662
     30 H           5.7886   -2.3276    0.0000 H       1  UNL1        0.0624
     31 H           7.2376   -3.1494    0.0000 H       1  UNL1        0.0624
     32 H           8.9904   -3.1147    0.0000 H       1  UNL1        0.0661
     33 H           6.0022    0.8373    0.0000 H       1  UNL1        0.0662
     34 H          11.8471   -1.9095    0.0000 H       1  UNL1        0.1166
     35 H          11.8471   -1.0800    0.0000 H       1  UNL1        0.1166
     36 H           6.6980    1.5832    0.0000 H       1  UNL1        0.0432
     37 H           5.8484    1.3660    0.0000 H       1  UNL1        0.0432
     38 H           6.0656    0.5165    0.0000 H       1  UNL1        0.0432
     39 H           3.1901   -0.7718    0.0000 H       1  UNL1        0.0692
     40 H           8.6470    0.7136    0.0000 H       1  UNL1        0.1257
     41 H           4.0503   -2.2752    0.0000 H       1  UNL1        0.2922
     42 H           5.7797    1.9913    0.0000 H       1  UNL1        0.0660
     43 H           6.0099    2.8373    0.0000 H       1  UNL1        0.0660
     44 H           5.1639    3.0675    0.0000 H       1  UNL1        0.0660
     45 H           1.6921    1.0809    0.0000 H       1  UNL1        0.0660
     46 H           1.4619    0.2348    0.0000 H       1  UNL1        0.0660
     47 H           2.3079    0.0046    0.0000 H       1  UNL1        0.0660
@<TRIPOS>BOND
     1     1    15    1
     2     1    21    1
     3     2    18    1
     4     2    21    1
     5     3    19    1
     6     3    41    1
     7     4    23    1
     8     4    27    1
     9     5    25    1
    10     5    28    1
    11     6    26    2
    12     7     9    1
    13     7    22    1
    14     7    26   am
    15     8     9   ar
    16     8    11   ar
    17     8    12   ar
    18     9    10   ar
    19    10    13    1
    20    10    14   ar
    21    11    16   ar
    22    11    17   ar
    23    12    15   ar
    24    12    29    1
    25    13    19   ar
    26    13    20   ar
    27    14    16   ar
    28    14    30    1
    29    15    18   ar
    30    16    31    1
    31    17    18   ar
    32    17    32    1
    33    19    24   ar
    34    20    23   ar
    35    20    33    1
    36    21    34    1
    37    21    35    1
    38    22    36    1
    39    22    37    1
    40    22    38    1
    41    23    25   ar
    42    24    25   ar
    43    24    39    1
    44    26    40    1
    45    27    42    1
    46    27    43    1
    47    27    44    1
    48    28    45    1
    49    28    46    1
    50    28    47    1
