@<TRIPOS>MOLECULE
IMPHY009524
 57 60 0 0 0
SMALL
GASTEIGER

@<TRIPOS>ATOM
      1 O           5.9194   -0.4983    0.0000 O.3     1  UNL1       -0.4491
      2 O           7.9664    0.5379    0.0000 O.3     1  UNL1       -0.3837
      3 O           6.1574    1.8522    0.0000 O.3     1  UNL1       -0.3843
      4 O           5.2304   -1.0009    0.0000 O.3     1  UNL1       -0.3772
      5 O           5.6255   -2.2535    0.0000 O.3     1  UNL1       -0.3874
      6 O           4.7274    0.9223    0.0000 O.2     1  UNL1       -0.2508
      7 O           2.1289    2.4946    0.0000 O.3     1  UNL1       -0.3944
      8 C           6.3484   -0.6377    0.0000 C.3     1  UNL1        0.2029
      9 C           6.8484    0.9012    0.0000 C.3     1  UNL1        0.0429
     10 C           7.1574   -0.0499    0.0000 C.3     1  UNL1        0.1198
     11 C           5.8484    0.9012    0.0000 C.3     1  UNL1        0.1146
     12 C           5.5394   -0.0499    0.0000 C.3     1  UNL1        0.1610
     13 C           6.4413   -1.6751    0.0000 C.3     1  UNL1        0.1034
     14 C           8.1154   -0.4588    0.0000 C.3     1  UNL1       -0.0191
     15 C           5.0426    1.4834    0.0000 C.3     1  UNL1        0.0017
     16 C           6.4194    1.0406    0.0000 C.3     1  UNL1        0.0558
     17 C           4.5453   -0.0473    0.0000 C.2     1  UNL1       -0.0350
     18 C           7.3896   -2.1061    0.0000 C.3     1  UNL1       -0.0137
     19 C           7.1574    1.8522    0.0000 C.3     1  UNL1       -0.0535
     20 C           4.2389    0.8984    0.0000 C.2     1  UNL1       -0.0598
     21 C           8.2323   -1.4939    0.0000 C.3     1  UNL1       -0.0452
     22 C           5.6104    0.4528    0.0000 C.2     1  UNL1        0.3086
     23 C           3.2879    1.2074    0.0000 C.3     1  UNL1        0.0009
     24 C           3.9561   -0.8553    0.0000 C.3     1  UNL1       -0.0406
     25 C           7.4903   -3.1010    0.0000 C.3     1  UNL1       -0.0599
     26 C           3.0800    2.1856    0.0000 C.3     1  UNL1        0.0504
     27 C           2.5447    0.5383    0.0000 C.3     1  UNL1       -0.0566
     28 H           6.5002   -2.2923    0.0000 H       1  UNL1        0.0638
     29 H           8.7343   -0.4957    0.0000 H       1  UNL1        0.0294
     30 H           8.2577    0.1446    0.0000 H       1  UNL1        0.0294
     31 H           5.4566    1.9450    0.0000 H       1  UNL1        0.0339
     32 H           4.6271    1.9436    0.0000 H       1  UNL1        0.0339
     33 H           6.7294    1.5775    0.0000 H       1  UNL1        0.0385
     34 H           5.9587    1.4554    0.0000 H       1  UNL1        0.0385
     35 H           7.9555   -2.3594    0.0000 H       1  UNL1        0.0324
     36 H           7.7471    1.6607    0.0000 H       1  UNL1        0.0237
     37 H           7.3490    2.4419    0.0000 H       1  UNL1        0.0237
     38 H           6.5678    2.0438    0.0000 H       1  UNL1        0.0237
     39 H           8.5055   -2.0504    0.0000 H       1  UNL1        0.0270
     40 H           8.8274   -1.3199    0.0000 H       1  UNL1        0.0270
     41 H           8.5328    0.2857    0.0000 H       1  UNL1        0.2104
     42 H           5.7425    2.3130    0.0000 H       1  UNL1        0.2103
     43 H           4.6239   -1.1298    0.0000 H       1  UNL1        0.2109
     44 H           3.4168    0.6010    0.0000 H       1  UNL1        0.0365
     45 H           3.4552   -0.4900    0.0000 H       1  UNL1        0.0275
     46 H           3.5908   -1.3562    0.0000 H       1  UNL1        0.0275
     47 H           4.4571   -1.2206    0.0000 H       1  UNL1        0.0275
     48 H           6.8734   -3.1635    0.0000 H       1  UNL1        0.0233
     49 H           7.5527   -3.7179    0.0000 H       1  UNL1        0.0233
     50 H           8.1071   -3.0386    0.0000 H       1  UNL1        0.0233
     51 H           5.6832   -2.8708    0.0000 H       1  UNL1        0.2100
     52 H           3.6996    2.2072    0.0000 H       1  UNL1        0.0563
     53 H           3.1662    2.7995    0.0000 H       1  UNL1        0.0563
     54 H           2.1299    0.9990    0.0000 H       1  UNL1        0.0236
     55 H           2.0840    0.1234    0.0000 H       1  UNL1        0.0236
     56 H           2.9596    0.0775    0.0000 H       1  UNL1        0.0236
     57 H           2.0000    3.1010    0.0000 H       1  UNL1        0.2094
@<TRIPOS>BOND
     1     1     8    1
     2     1    22    1
     3     2    10    1
     4     2    41    1
     5     3    11    1
     6     3    42    1
     7     4    12    1
     8     4    43    1
     9     5    13    1
    10     5    51    1
    11     6    22    2
    12     7    26    1
    13     7    57    1
    14     8    10    1
    15     8    12    1
    16     8    13    1
    17     9    10    1
    18     9    11    1
    19     9    16    1
    20     9    19    1
    21    10    14    1
    22    11    12    1
    23    11    15    1
    24    12    17    1
    25    13    18    1
    26    13    28    1
    27    14    21    1
    28    14    29    1
    29    14    30    1
    30    15    20    1
    31    15    31    1
    32    15    32    1
    33    16    22    1
    34    16    33    1
    35    16    34    1
    36    17    20    2
    37    17    24    1
    38    18    21    1
    39    18    25    1
    40    18    35    1
    41    19    36    1
    42    19    37    1
    43    19    38    1
    44    20    23    1
    45    21    39    1
    46    21    40    1
    47    23    26    1
    48    23    27    1
    49    23    44    1
    50    24    45    1
    51    24    46    1
    52    24    47    1
    53    25    48    1
    54    25    49    1
    55    25    50    1
    56    26    52    1
    57    26    53    1
    58    27    54    1
    59    27    55    1
    60    27    56    1
