@<TRIPOS>MOLECULE
IMPHY006266
 61 62 0 0 0
SMALL
GASTEIGER

@<TRIPOS>ATOM
      1 O          19.4007    0.3047    0.0000 O.3     1  UNL1       -0.4526
      2 O          19.4007   -1.3047    0.0000 O.3     1  UNL1       -0.4526
      3 O           5.4641    1.5000    0.0000 O.2     1  UNL1       -0.2708
      4 N           4.5981    0.0000    0.0000 N.am    1  UNL1       -0.3116
      5 C          12.3923    0.5000    0.0000 C.3     1  UNL1       -0.0528
      6 C          11.5263    0.0000    0.0000 C.3     1  UNL1       -0.0528
      7 C          13.2583    0.0000    0.0000 C.3     1  UNL1       -0.0496
      8 C          10.6603    0.5000    0.0000 C.3     1  UNL1       -0.0496
      9 C          14.1244    0.5000    0.0000 C.3     1  UNL1       -0.0345
     10 C           9.7942    0.0000    0.0000 C.3     1  UNL1       -0.0345
     11 C           2.8660    0.0000    0.0000 C.3     1  UNL1       -0.0311
     12 C          14.9904    0.0000    0.0000 C.2     1  UNL1       -0.0835
     13 C           8.9282    0.5000    0.0000 C.2     1  UNL1       -0.0840
     14 C           3.7320    0.5000    0.0000 C.3     1  UNL1        0.0142
     15 C          15.8564    0.5000    0.0000 C.2     1  UNL1       -0.0584
     16 C           2.0000    0.5000    0.0000 C.3     1  UNL1       -0.0612
     17 C           2.8660   -1.0000    0.0000 C.3     1  UNL1       -0.0612
     18 C          16.7224    0.0000    0.0000 C.ar    1  UNL1       -0.0216
     19 C           8.0622    0.0000    0.0000 C.2     1  UNL1       -0.0655
     20 C          17.5885    0.5000    0.0000 C.ar    1  UNL1       -0.0090
     21 C          18.4545    0.0000    0.0000 C.ar    1  UNL1        0.1668
     22 C          16.7224   -1.0000    0.0000 C.ar    1  UNL1       -0.0509
     23 C          18.4545   -1.0000    0.0000 C.ar    1  UNL1        0.1663
     24 C          17.5885   -1.5000    0.0000 C.ar    1  UNL1       -0.0156
     25 C           5.4641    0.5000    0.0000 C.2     1  UNL1        0.2369
     26 C           7.1962    0.5000    0.0000 C.2     1  UNL1       -0.0571
     27 C           6.3301    0.0000    0.0000 C.2     1  UNL1        0.0001
     28 C          19.9843   -0.5000    0.0000 C.3     1  UNL1        0.2332
     29 H          12.7908    0.9749    0.0000 H       1  UNL1        0.0265
     30 H          11.9938    0.9749    0.0000 H       1  UNL1        0.0265
     31 H          11.1278   -0.4749    0.0000 H       1  UNL1        0.0265
     32 H          11.9248   -0.4749    0.0000 H       1  UNL1        0.0265
     33 H          12.8598   -0.4749    0.0000 H       1  UNL1        0.0268
     34 H          13.6569   -0.4749    0.0000 H       1  UNL1        0.0268
     35 H          11.0588    0.9749    0.0000 H       1  UNL1        0.0268
     36 H          10.2617    0.9749    0.0000 H       1  UNL1        0.0268
     37 H          14.5229    0.9749    0.0000 H       1  UNL1        0.0307
     38 H          13.7258    0.9749    0.0000 H       1  UNL1        0.0307
     39 H           9.3957   -0.4749    0.0000 H       1  UNL1        0.0307
     40 H          10.1928   -0.4749    0.0000 H       1  UNL1        0.0307
     41 H           2.8660    0.6200    0.0000 H       1  UNL1        0.0311
     42 H          14.9904   -0.6200    0.0000 H       1  UNL1        0.0572
     43 H           8.9282    1.1200    0.0000 H       1  UNL1        0.0572
     44 H           4.1306    0.9749    0.0000 H       1  UNL1        0.0465
     45 H           3.3335    0.9749    0.0000 H       1  UNL1        0.0465
     46 H          15.8564    1.1200    0.0000 H       1  UNL1        0.0620
     47 H           2.2460   -1.0000    0.0000 H       1  UNL1        0.0233
     48 H           2.3100    1.0369    0.0000 H       1  UNL1        0.0233
     49 H           1.4631    0.8100    0.0000 H       1  UNL1        0.0233
     50 H           1.6900   -0.0369    0.0000 H       1  UNL1        0.0233
     51 H           2.8660   -1.6200    0.0000 H       1  UNL1        0.0233
     52 H           3.4860   -1.0000    0.0000 H       1  UNL1        0.0233
     53 H           4.5981   -0.6200    0.0000 H       1  UNL1        0.1490
     54 H           8.0622   -0.6200    0.0000 H       1  UNL1        0.0614
     55 H          17.5885    1.1200    0.0000 H       1  UNL1        0.0661
     56 H          16.1855   -1.3100    0.0000 H       1  UNL1        0.0625
     57 H          17.5885   -2.1200    0.0000 H       1  UNL1        0.0655
     58 H           7.1962    1.1200    0.0000 H       1  UNL1        0.0619
     59 H           6.3301   -0.6200    0.0000 H       1  UNL1        0.0669
     60 H          20.4452   -0.9147    0.0000 H       1  UNL1        0.1166
     61 H          20.4452   -0.0853    0.0000 H       1  UNL1        0.1166
@<TRIPOS>BOND
     1     1    21    1
     2     1    28    1
     3     2    23    1
     4     2    28    1
     5     3    25    2
     6     4    14    1
     7     4    25   am
     8     4    53    1
     9     5     6    1
    10     5     7    1
    11     5    29    1
    12     5    30    1
    13     6     8    1
    14     6    31    1
    15     6    32    1
    16     7     9    1
    17     7    33    1
    18     7    34    1
    19     8    10    1
    20     8    35    1
    21     8    36    1
    22     9    12    1
    23     9    37    1
    24     9    38    1
    25    10    13    1
    26    10    39    1
    27    10    40    1
    28    11    14    1
    29    11    16    1
    30    11    17    1
    31    11    41    1
    32    12    15    2
    33    12    42    1
    34    13    19    2
    35    13    43    1
    36    14    44    1
    37    14    45    1
    38    15    18    1
    39    15    46    1
    40    16    48    1
    41    16    49    1
    42    16    50    1
    43    17    47    1
    44    17    51    1
    45    17    52    1
    46    18    20   ar
    47    18    22   ar
    48    19    26    1
    49    19    54    1
    50    20    21   ar
    51    20    55    1
    52    21    23   ar
    53    22    24   ar
    54    22    56    1
    55    23    24   ar
    56    24    57    1
    57    25    27    1
    58    26    27    2
    59    26    58    1
    60    27    59    1
    61    28    60    1
    62    28    61    1
