@<TRIPOS>MOLECULE
IMPHY003629
 49 52 0 0 0
SMALL
GASTEIGER

@<TRIPOS>ATOM
      1 O           5.5093    2.1852    0.0000 O.3     1  UNL1       -0.3935
      2 O           4.5535    2.0338    0.0000 O.3     1  UNL1       -0.4672
      3 O           3.2765    0.8636    0.0000 O.2     1  UNL1       -0.2497
      4 N           6.6882   -0.5205    0.0000 N.3     1  UNL1       -0.2942
      5 N           3.2922   -0.4605    0.0000 N.ar    1  UNL1       -0.3567
      6 C           6.9470    0.4454    0.0000 C.3     1  UNL1        0.0058
      7 C           4.9284    0.3428    0.0000 C.3     1  UNL1        0.1369
      8 C           8.3460   -0.0634    0.0000 C.3     1  UNL1       -0.0322
      9 C           4.2856   -0.4232    0.0000 C.ar    1  UNL1        0.0413
     10 C           6.5764    1.7940    0.0000 C.2     1  UNL1       -0.0552
     11 C           8.0872   -1.0294    0.0000 C.3     1  UNL1        0.0001
     12 C           5.7104    1.2940    0.0000 C.3     1  UNL1        0.0207
     13 C           4.6276   -1.3629    0.0000 C.ar    1  UNL1       -0.0040
     14 C           5.6124   -1.5366    0.0000 C.3     1  UNL1        0.0266
     15 C           4.9720    1.3419    0.0000 C.3     1  UNL1        0.0660
     16 C           4.2528    1.0801    0.0000 C.2     1  UNL1        0.3217
     17 C           3.8427   -1.9729    0.0000 C.ar    1  UNL1        0.0044
     18 C           3.0190   -1.4163    0.0000 C.ar    1  UNL1        0.0470
     19 C           6.8353    2.7600    0.0000 C.2     1  UNL1       -0.0863
     20 C           3.7855   -3.0068    0.0000 C.ar    1  UNL1       -0.0523
     21 C           2.0811   -1.8550    0.0000 C.ar    1  UNL1       -0.0378
     22 C           6.1282    3.4671    0.0000 C.3     1  UNL1       -0.0465
     23 C           2.8579   -3.4671    0.0000 C.ar    1  UNL1       -0.0611
     24 C           2.0000   -2.8873    0.0000 C.ar    1  UNL1       -0.0598
     25 C           3.8779    2.7711    0.0000 C.3     1  UNL1        0.0817
     26 H           7.1670    1.2664    0.0000 H       1  UNL1        0.0362
     27 H           8.9399   -0.2412    0.0000 H       1  UNL1        0.0284
     28 H           8.5409    0.5251    0.0000 H       1  UNL1        0.0284
     29 H           7.8922   -1.6179    0.0000 H       1  UNL1        0.0427
     30 H           8.6811   -1.2071    0.0000 H       1  UNL1        0.0427
     31 H           5.4057    1.8340    0.0000 H       1  UNL1        0.0473
     32 H           5.1675    0.9946    0.0000 H       1  UNL1        0.0473
     33 H           5.3780   -2.1106    0.0000 H       1  UNL1        0.0476
     34 H           6.1238   -1.8871    0.0000 H       1  UNL1        0.0476
     35 H           4.5946    1.8337    0.0000 H       1  UNL1        0.0572
     36 H           5.5633    1.1554    0.0000 H       1  UNL1        0.0572
     37 H           2.9096    0.0274    0.0000 H       1  UNL1        0.1656
     38 H           7.4341    2.9204    0.0000 H       1  UNL1        0.0569
     39 H           4.3032   -3.3480    0.0000 H       1  UNL1        0.0624
     40 H           5.2230    2.7352    0.0000 H       1  UNL1        0.2095
     41 H           1.5714   -1.5020    0.0000 H       1  UNL1        0.0638
     42 H           6.5666    3.9055    0.0000 H       1  UNL1        0.0272
     43 H           5.6897    3.9055    0.0000 H       1  UNL1        0.0272
     44 H           5.6897    3.0287    0.0000 H       1  UNL1        0.0272
     45 H           2.8165   -4.0857    0.0000 H       1  UNL1        0.0618
     46 H           1.4415   -3.1565    0.0000 H       1  UNL1        0.0618
     47 H           4.3350    3.1900    0.0000 H       1  UNL1        0.0661
     48 H           3.4590    3.2282    0.0000 H       1  UNL1        0.0661
     49 H           3.4208    2.3522    0.0000 H       1  UNL1        0.0661
@<TRIPOS>BOND
     1     1    15    1
     2     1    40    1
     3     2    16    1
     4     2    25    1
     5     3    16    2
     6     4    11    1
     7     4    12    1
     8     4    14    1
     9     5     9   ar
    10     5    18   ar
    11     5    37    1
    12     6     7    1
    13     6     8    1
    14     6    10    1
    15     6    26    1
    16     7     9    1
    17     7    15    1
    18     7    16    1
    19     8    11    1
    20     8    27    1
    21     8    28    1
    22     9    13   ar
    23    10    12    1
    24    10    19    2
    25    11    29    1
    26    11    30    1
    27    12    31    1
    28    12    32    1
    29    13    14    1
    30    13    17   ar
    31    14    33    1
    32    14    34    1
    33    15    35    1
    34    15    36    1
    35    17    18   ar
    36    17    20   ar
    37    18    21   ar
    38    19    22    1
    39    19    38    1
    40    20    23   ar
    41    20    39    1
    42    21    24   ar
    43    21    41    1
    44    22    42    1
    45    22    43    1
    46    22    44    1
    47    23    24   ar
    48    23    45    1
    49    24    46    1
    50    25    47    1
    51    25    48    1
    52    25    49    1
