@<TRIPOS>MOLECULE
IMPHY001552
 44 45 0 0 0
SMALL
GASTEIGER

@<TRIPOS>ATOM
      1 O           8.9282   -0.7073    0.0000 O.3     1  UNL1       -0.4878
      2 O          12.4202   -0.7420    0.0000 O.2     1  UNL1       -0.4220
      3 O          14.1904   -0.7315    0.0000 O.2     1  UNL1       -0.2452
      4 C           5.4641   -0.7073    0.0000 C.3     1  UNL1       -0.0285
      5 C           4.5981   -0.2073    0.0000 C.3     1  UNL1       -0.0308
      6 C           6.3301   -0.2073    0.0000 C.2     1  UNL1       -0.0731
      7 C           7.1962   -0.7073    0.0000 C.2     1  UNL1       -0.0481
      8 C           3.7320   -0.7073    0.0000 C.2     1  UNL1       -0.0850
      9 C           8.0622   -0.2073    0.0000 C.3     1  UNL1        0.1081
     10 C           6.3301    0.7927    0.0000 C.3     1  UNL1       -0.0437
     11 C           2.8660   -0.2073    0.0000 C.2     1  UNL1       -0.0796
     12 C           9.7942   -0.2073    0.0000 C.ar    1  UNL1        0.1245
     13 C          11.5263    0.7927    0.0000 C.ar    1  UNL1        0.0178
     14 C          11.5263   -0.2073    0.0000 C.ar    1  UNL1        0.1425
     15 C          10.6603   -0.7073    0.0000 C.ar    1  UNL1        0.0231
     16 C           9.7942    0.7927    0.0000 C.ar    1  UNL1       -0.0191
     17 C          10.6603    1.2927    0.0000 C.ar    1  UNL1       -0.0476
     18 C           2.0000   -0.7073    0.0000 C.3     1  UNL1       -0.0440
     19 C           2.8660    0.7927    0.0000 C.3     1  UNL1       -0.0440
     20 C          12.4202    1.3273    0.0000 C.ar    1  UNL1       -0.0443
     21 C          13.3263    0.8135    0.0000 C.ar    1  UNL1        0.0236
     22 C          13.3263   -0.2281    0.0000 C.ar    1  UNL1        0.3372
     23 H           5.0656   -1.1823    0.0000 H       1  UNL1        0.0313
     24 H           5.8626   -1.1823    0.0000 H       1  UNL1        0.0313
     25 H           4.9966    0.2676    0.0000 H       1  UNL1        0.0310
     26 H           4.1996    0.2676    0.0000 H       1  UNL1        0.0310
     27 H           7.1962   -1.3273    0.0000 H       1  UNL1        0.0605
     28 H           3.7320   -1.3273    0.0000 H       1  UNL1        0.0572
     29 H           8.4607    0.2676    0.0000 H       1  UNL1        0.0742
     30 H           7.6636    0.2676    0.0000 H       1  UNL1        0.0742
     31 H           6.9501    0.7927    0.0000 H       1  UNL1        0.0274
     32 H           6.3301    1.4127    0.0000 H       1  UNL1        0.0274
     33 H           5.7101    0.7927    0.0000 H       1  UNL1        0.0274
     34 H          10.6603   -1.3273    0.0000 H       1  UNL1        0.0691
     35 H           9.2573    1.1027    0.0000 H       1  UNL1        0.0654
     36 H          10.6603    1.9127    0.0000 H       1  UNL1        0.0626
     37 H           1.6900   -0.1704    0.0000 H       1  UNL1        0.0274
     38 H           1.4631   -1.0173    0.0000 H       1  UNL1        0.0274
     39 H           2.3100   -1.2443    0.0000 H       1  UNL1        0.0274
     40 H           3.4860    0.7927    0.0000 H       1  UNL1        0.0274
     41 H           2.8660    1.4127    0.0000 H       1  UNL1        0.0274
     42 H           2.2460    0.7927    0.0000 H       1  UNL1        0.0274
     43 H          12.4131    1.9473    0.0000 H       1  UNL1        0.0627
     44 H          13.8620    1.1256    0.0000 H       1  UNL1        0.0689
@<TRIPOS>BOND
     1     1     9    1
     2     1    12    1
     3     2    14   ar
     4     2    22   ar
     5     3    22    2
     6     4     5    1
     7     4     6    1
     8     4    23    1
     9     4    24    1
    10     5     8    1
    11     5    25    1
    12     5    26    1
    13     6     7    2
    14     6    10    1
    15     7     9    1
    16     7    27    1
    17     8    11    2
    18     8    28    1
    19     9    29    1
    20     9    30    1
    21    10    31    1
    22    10    32    1
    23    10    33    1
    24    11    18    1
    25    11    19    1
    26    12    15   ar
    27    12    16   ar
    28    13    14   ar
    29    13    17   ar
    30    13    20   ar
    31    14    15   ar
    32    15    34    1
    33    16    17   ar
    34    16    35    1
    35    17    36    1
    36    18    37    1
    37    18    38    1
    38    18    39    1
    39    19    40    1
    40    19    41    1
    41    19    42    1
    42    20    21   ar
    43    20    43    1
    44    21    22   ar
    45    21    44    1
