@<TRIPOS>MOLECULE
IMPHY017019
 61 60 0 0 0
SMALL
GASTEIGER

@<TRIPOS>ATOM
      1 O           5.1350    1.3100    0.0000 O.3     1  UNL1       -0.4567
      2 O           6.0010   -0.1900    0.0000 O.2     1  UNL1       -0.2508
      3 O           2.5369    0.8100    0.0000 O.3     1  UNL1       -0.3913
      4 O           3.4030   -0.6900    0.0000 O.3     1  UNL1       -0.3913
      5 C          12.0632    1.3100    0.0000 C.3     1  UNL1       -0.0531
      6 C          12.9292    0.8100    0.0000 C.3     1  UNL1       -0.0531
      7 C          11.1972    0.8100    0.0000 C.3     1  UNL1       -0.0531
      8 C          13.7953    1.3100    0.0000 C.3     1  UNL1       -0.0531
      9 C          10.3312    1.3100    0.0000 C.3     1  UNL1       -0.0531
     10 C          14.6613    0.8100    0.0000 C.3     1  UNL1       -0.0531
     11 C           9.4651    0.8100    0.0000 C.3     1  UNL1       -0.0530
     12 C          15.5273    1.3100    0.0000 C.3     1  UNL1       -0.0531
     13 C           8.5991    1.3100    0.0000 C.3     1  UNL1       -0.0526
     14 C          16.3933    0.8100    0.0000 C.3     1  UNL1       -0.0531
     15 C           7.7331    0.8100    0.0000 C.3     1  UNL1       -0.0430
     16 C          17.2594    1.3100    0.0000 C.3     1  UNL1       -0.0533
     17 C          18.1254    0.8100    0.0000 C.3     1  UNL1       -0.0559
     18 C           6.8671    1.3100    0.0000 C.3     1  UNL1        0.0450
     19 C          18.9914    1.3100    0.0000 C.3     1  UNL1       -0.0653
     20 C           6.0010    0.8100    0.0000 C.2     1  UNL1        0.3075
     21 C           4.2690    0.8100    0.0000 C.3     1  UNL1        0.1488
     22 C           3.4030    1.3100    0.0000 C.3     1  UNL1        0.0834
     23 C           4.2690   -0.1900    0.0000 C.3     1  UNL1        0.0834
     24 H          12.4617    1.7850    0.0000 H       1  UNL1        0.0265
     25 H          11.6647    1.7850    0.0000 H       1  UNL1        0.0265
     26 H          12.5307    0.3351    0.0000 H       1  UNL1        0.0265
     27 H          13.3278    0.3351    0.0000 H       1  UNL1        0.0265
     28 H          10.7987    0.3351    0.0000 H       1  UNL1        0.0265
     29 H          11.5957    0.3351    0.0000 H       1  UNL1        0.0265
     30 H          14.1938    1.7850    0.0000 H       1  UNL1        0.0265
     31 H          13.3967    1.7850    0.0000 H       1  UNL1        0.0265
     32 H          10.7297    1.7850    0.0000 H       1  UNL1        0.0265
     33 H           9.9326    1.7850    0.0000 H       1  UNL1        0.0265
     34 H          14.2628    0.3351    0.0000 H       1  UNL1        0.0265
     35 H          15.0598    0.3351    0.0000 H       1  UNL1        0.0265
     36 H           9.0666    0.3351    0.0000 H       1  UNL1        0.0265
     37 H           9.8637    0.3351    0.0000 H       1  UNL1        0.0265
     38 H          15.9258    1.7850    0.0000 H       1  UNL1        0.0265
     39 H          15.1288    1.7850    0.0000 H       1  UNL1        0.0265
     40 H           8.9976    1.7850    0.0000 H       1  UNL1        0.0265
     41 H           8.2006    1.7850    0.0000 H       1  UNL1        0.0265
     42 H          15.9948    0.3351    0.0000 H       1  UNL1        0.0265
     43 H          16.7919    0.3351    0.0000 H       1  UNL1        0.0265
     44 H           7.3346    0.3351    0.0000 H       1  UNL1        0.0270
     45 H           8.1316    0.3351    0.0000 H       1  UNL1        0.0270
     46 H          17.6579    1.7850    0.0000 H       1  UNL1        0.0265
     47 H          16.8608    1.7850    0.0000 H       1  UNL1        0.0265
     48 H          17.7269    0.3351    0.0000 H       1  UNL1        0.0263
     49 H          18.5239    0.3351    0.0000 H       1  UNL1        0.0263
     50 H           7.2656    1.7850    0.0000 H       1  UNL1        0.0377
     51 H           6.4685    1.7850    0.0000 H       1  UNL1        0.0377
     52 H          19.3014    0.7731    0.0000 H       1  UNL1        0.0230
     53 H          19.5284    1.6200    0.0000 H       1  UNL1        0.0230
     54 H          18.6814    1.8469    0.0000 H       1  UNL1        0.0230
     55 H           4.2690    1.4300    0.0000 H       1  UNL1        0.0780
     56 H           3.8015    1.7850    0.0000 H       1  UNL1        0.0595
     57 H           3.0044    1.7850    0.0000 H       1  UNL1        0.0595
     58 H           4.4810   -0.7726    0.0000 H       1  UNL1        0.0595
     59 H           4.8796   -0.0823    0.0000 H       1  UNL1        0.0595
     60 H           2.0000    1.1200    0.0000 H       1  UNL1        0.2096
     61 H           3.4030   -1.3100    0.0000 H       1  UNL1        0.2096
@<TRIPOS>BOND
     1     1    20    1
     2     1    21    1
     3     2    20    2
     4     3    22    1
     5     3    60    1
     6     4    23    1
     7     4    61    1
     8     5     6    1
     9     5     7    1
    10     5    24    1
    11     5    25    1
    12     6     8    1
    13     6    26    1
    14     6    27    1
    15     7     9    1
    16     7    28    1
    17     7    29    1
    18     8    10    1
    19     8    30    1
    20     8    31    1
    21     9    11    1
    22     9    32    1
    23     9    33    1
    24    10    12    1
    25    10    34    1
    26    10    35    1
    27    11    13    1
    28    11    36    1
    29    11    37    1
    30    12    14    1
    31    12    38    1
    32    12    39    1
    33    13    15    1
    34    13    40    1
    35    13    41    1
    36    14    16    1
    37    14    42    1
    38    14    43    1
    39    15    18    1
    40    15    44    1
    41    15    45    1
    42    16    17    1
    43    16    46    1
    44    16    47    1
    45    17    19    1
    46    17    48    1
    47    17    49    1
    48    18    20    1
    49    18    50    1
    50    18    51    1
    51    19    52    1
    52    19    53    1
    53    19    54    1
    54    21    22    1
    55    21    23    1
    56    21    55    1
    57    22    56    1
    58    22    57    1
    59    23    58    1
    60    23    59    1
