@<TRIPOS>MOLECULE
IMPHY017483
 45 45 0 0 0
SMALL
GASTEIGER

@<TRIPOS>ATOM
      1 O           2.5369   -0.0000    0.0000 O.3     1  UNL1       -0.3862
      2 O           6.0010    0.0000    0.0000 O.2     1  UNL1       -0.2967
      3 C           4.2690    0.0000    0.0000 C.3     1  UNL1        0.0584
      4 C           3.7690    0.8660    0.0000 C.3     1  UNL1       -0.0319
      5 C           3.4030   -0.5000    0.0000 C.3     1  UNL1        0.0924
      6 C           5.1350    0.5000    0.0000 C.2     1  UNL1        0.1422
      7 C           4.7690   -0.8660    0.0000 C.3     1  UNL1       -0.0499
      8 C           4.2690    1.7320    0.0000 C.3     1  UNL1       -0.0617
      9 C           2.7690    0.8660    0.0000 C.3     1  UNL1       -0.0617
     10 C           5.1350    1.5000    0.0000 C.3     1  UNL1        0.0065
     11 C           3.4030   -1.5000    0.0000 C.ar    1  UNL1       -0.0182
     12 C           6.0010    2.0000    0.0000 C.3     1  UNL1       -0.0466
     13 C           6.0010    3.0000    0.0000 C.3     1  UNL1       -0.0555
     14 C           4.2690   -2.0000    0.0000 C.ar    1  UNL1       -0.0561
     15 C           2.5369   -2.0000    0.0000 C.ar    1  UNL1       -0.0561
     16 C           4.2690   -3.0000    0.0000 C.ar    1  UNL1       -0.0614
     17 C           2.5369   -3.0000    0.0000 C.ar    1  UNL1       -0.0614
     18 C           6.8671    3.5000    0.0000 C.3     1  UNL1       -0.0653
     19 C           3.4030   -3.5000    0.0000 C.ar    1  UNL1       -0.0617
     20 H           3.4590    1.4030    0.0000 H       1  UNL1        0.0306
     21 H           3.4030    0.1200    0.0000 H       1  UNL1        0.0653
     22 H           4.2320   -1.1760    0.0000 H       1  UNL1        0.0240
     23 H           5.0790   -1.4030    0.0000 H       1  UNL1        0.0240
     24 H           5.3059   -0.5560    0.0000 H       1  UNL1        0.0240
     25 H           4.8059    1.4220    0.0000 H       1  UNL1        0.0233
     26 H           4.5790    2.2690    0.0000 H       1  UNL1        0.0233
     27 H           3.7320    2.0420    0.0000 H       1  UNL1        0.0233
     28 H           2.7690    1.4860    0.0000 H       1  UNL1        0.0233
     29 H           2.1490    0.8660    0.0000 H       1  UNL1        0.0233
     30 H           2.7690    0.2460    0.0000 H       1  UNL1        0.0233
     31 H           4.9230    2.0826    0.0000 H       1  UNL1        0.0342
     32 H           4.5244    1.3923    0.0000 H       1  UNL1        0.0342
     33 H           6.2131    1.4174    0.0000 H       1  UNL1        0.0269
     34 H           6.6116    2.1077    0.0000 H       1  UNL1        0.0269
     35 H           2.0000   -0.3100    0.0000 H       1  UNL1        0.2103
     36 H           5.7890    3.5826    0.0000 H       1  UNL1        0.0263
     37 H           5.3905    2.8923    0.0000 H       1  UNL1        0.0263
     38 H           4.8059   -1.6900    0.0000 H       1  UNL1        0.0621
     39 H           2.0000   -1.6900    0.0000 H       1  UNL1        0.0621
     40 H           4.8059   -3.3100    0.0000 H       1  UNL1        0.0618
     41 H           2.0000   -3.3100    0.0000 H       1  UNL1        0.0618
     42 H           7.1771    2.9631    0.0000 H       1  UNL1        0.0230
     43 H           7.4040    3.8100    0.0000 H       1  UNL1        0.0230
     44 H           6.5571    4.0369    0.0000 H       1  UNL1        0.0230
     45 H           3.4030   -4.1200    0.0000 H       1  UNL1        0.0618
@<TRIPOS>BOND
     1     1     5    1
     2     1    35    1
     3     2     6    2
     4     3     4    1
     5     3     5    1
     6     3     6    1
     7     3     7    1
     8     4     8    1
     9     4     9    1
    10     4    20    1
    11     5    11    1
    12     5    21    1
    13     6    10    1
    14     7    22    1
    15     7    23    1
    16     7    24    1
    17     8    25    1
    18     8    26    1
    19     8    27    1
    20     9    28    1
    21     9    29    1
    22     9    30    1
    23    10    12    1
    24    10    31    1
    25    10    32    1
    26    11    14   ar
    27    11    15   ar
    28    12    13    1
    29    12    33    1
    30    12    34    1
    31    13    18    1
    32    13    36    1
    33    13    37    1
    34    14    16   ar
    35    14    38    1
    36    15    17   ar
    37    15    39    1
    38    16    19   ar
    39    16    40    1
    40    17    19   ar
    41    17    41    1
    42    18    42    1
    43    18    43    1
    44    18    44    1
    45    19    45    1
