@<TRIPOS>MOLECULE
IMPHY014227
 38 41 0 0 0
SMALL
GASTEIGER

@<TRIPOS>ATOM
      1 O           5.6161   -1.9609    0.0000 O.3     1  UNL1       -0.3605
      2 O           2.7364    0.3634    0.0000 O.3     1  UNL1       -0.4601
      3 O           2.0000    1.9799    0.0000 O.2     1  UNL1       -0.2505
      4 C           4.7896   -1.3971    0.0000 C.3     1  UNL1        0.1120
      5 C           5.6906   -0.9633    0.0000 C.3     1  UNL1        0.0974
      6 C           3.8887   -0.9633    0.0000 C.3     1  UNL1        0.0493
      7 C           3.6662    0.0117    0.0000 C.3     1  UNL1        0.1158
      8 C           5.9131    0.0117    0.0000 C.3     1  UNL1       -0.0208
      9 C           4.6536   -2.3819    0.0000 C.3     1  UNL1       -0.0018
     10 C           4.2896    0.7935    0.0000 C.3     1  UNL1        0.0095
     11 C           5.2896    0.7935    0.0000 C.3     1  UNL1       -0.0434
     12 C           3.2036   -1.6836    0.0000 C.2     1  UNL1       -0.0671
     13 C           6.5916   -0.5294    0.0000 C.3     1  UNL1       -0.0330
     14 C           3.6754   -2.5585    0.0000 C.2     1  UNL1       -0.0817
     15 C           3.7399    1.6217    0.0000 C.3     1  UNL1        0.0598
     16 C           2.7818    1.3564    0.0000 C.2     1  UNL1        0.3106
     17 C           2.2124   -1.5510    0.0000 C.3     1  UNL1       -0.0433
     18 C           4.0896    2.5585    0.0000 C.3     1  UNL1       -0.0519
     19 H           3.0690   -0.7382    0.0000 H       1  UNL1        0.0411
     20 H           3.0253   -0.5468    0.0000 H       1  UNL1        0.0744
     21 H           6.4717   -0.2573    0.0000 H       1  UNL1        0.0294
     22 H           6.2997    0.4964    0.0000 H       1  UNL1        0.0294
     23 H           4.6991   -3.0002    0.0000 H       1  UNL1        0.0336
     24 H           5.2733   -2.4017    0.0000 H       1  UNL1        0.0336
     25 H           4.6915    1.5425    0.0000 H       1  UNL1        0.0344
     26 H           5.8482    1.0625    0.0000 H       1  UNL1        0.0270
     27 H           5.1517    1.3980    0.0000 H       1  UNL1        0.0270
     28 H           6.8606   -1.0880    0.0000 H       1  UNL1        0.0258
     29 H           7.1502   -0.2604    0.0000 H       1  UNL1        0.0258
     30 H           6.3226    0.0292    0.0000 H       1  UNL1        0.0258
     31 H           3.4064   -3.1171    0.0000 H       1  UNL1        0.0573
     32 H           4.3558    1.6924    0.0000 H       1  UNL1        0.0415
     33 H           2.2946   -0.9365    0.0000 H       1  UNL1        0.0274
     34 H           1.5979   -1.4689    0.0000 H       1  UNL1        0.0274
     35 H           2.1302   -2.1656    0.0000 H       1  UNL1        0.0274
     36 H           4.6704    2.3417    0.0000 H       1  UNL1        0.0238
     37 H           4.3065    3.1394    0.0000 H       1  UNL1        0.0238
     38 H           3.5088    2.7754    0.0000 H       1  UNL1        0.0238
@<TRIPOS>BOND
     1     4     1    1
     2     1     5    1
     3     2     7    1
     4     2    16    1
     5     3    16    2
     6     4     5    1
     7     4     6    1
     8     4     9    1
     9     5     8    1
    10     5    13    1
    11     6     7    1
    12     6    12    1
    13     6    19    1
    14     7    10    1
    15     7    20    1
    16     8    11    1
    17     8    21    1
    18     8    22    1
    19     9    14    1
    20     9    23    1
    21     9    24    1
    22    10    11    1
    23    10    15    1
    24    10    25    1
    25    11    26    1
    26    11    27    1
    27    12    14    2
    28    12    17    1
    29    13    28    1
    30    13    29    1
    31    13    30    1
    32    14    31    1
    33    15    16    1
    34    15    18    1
    35    15    32    1
    36    17    33    1
    37    17    34    1
    38    17    35    1
    39    18    36    1
    40    18    37    1
    41    18    38    1
