@<TRIPOS>MOLECULE
IMPHY012397
 82 89 0 0 0
SMALL
GASTEIGER

@<TRIPOS>ATOM
      1 O          13.4304    1.2275    0.0000 O.3     1  UNL1       -0.5054
      2 O           7.2343   -1.2275    0.0000 O.3     1  UNL1       -0.5054
      3 O          11.6820    1.2621    0.0000 O.2     1  UNL1       -0.2865
      4 O           8.9827   -1.2621    0.0000 O.2     1  UNL1       -0.2865
      5 O          11.6820   -2.8071    0.0000 O.2     1  UNL1       -0.2872
      6 O           8.9827    2.8071    0.0000 O.2     1  UNL1       -0.2872
      7 O          17.7606    1.7275    0.0000 O.3     1  UNL1       -0.5060
      8 O           2.9042   -1.7275    0.0000 O.3     1  UNL1       -0.5060
      9 O          16.0009   -2.3139    0.0000 O.2     1  UNL1       -0.2872
     10 O           4.6638    2.3139    0.0000 O.2     1  UNL1       -0.2872
     11 O          18.6647    0.2307    0.0000 O.2     1  UNL1       -0.2871
     12 O           2.0000   -0.2307    0.0000 O.2     1  UNL1       -0.2871
     13 C          14.2965   -0.2725    0.0000 C.ar    1  UNL1        0.0282
     14 C           6.3683    0.2725    0.0000 C.ar    1  UNL1        0.0282
     15 C          12.5644   -0.2725    0.0000 C.ar    1  UNL1        0.0750
     16 C           8.1003    0.2725    0.0000 C.ar    1  UNL1        0.0750
     17 C          15.1625    0.2275    0.0000 C.ar    1  UNL1        0.0005
     18 C           5.5022   -0.2275    0.0000 C.ar    1  UNL1        0.0005
     19 C          12.5644   -1.2725    0.0000 C.ar    1  UNL1        0.0363
     20 C           8.1003    1.2725    0.0000 C.ar    1  UNL1        0.0363
     21 C          13.4304    0.2275    0.0000 C.ar    1  UNL1        0.1363
     22 C           7.2343   -0.2275    0.0000 C.ar    1  UNL1        0.1363
     23 C          10.7644   -0.2517    0.0000 C.2     1  UNL1        0.0369
     24 C           9.9003    0.2517    0.0000 C.2     1  UNL1        0.0369
     25 C          14.2965   -1.2725    0.0000 C.ar    1  UNL1       -0.0385
     26 C           6.3683    1.2725    0.0000 C.ar    1  UNL1       -0.0385
     27 C          11.6705    0.2622    0.0000 C.2     1  UNL1        0.1981
     28 C           8.9943   -0.2622    0.0000 C.2     1  UNL1        0.1981
     29 C          16.0285   -0.2725    0.0000 C.ar    1  UNL1        0.0440
     30 C           4.6362    0.2725    0.0000 C.ar    1  UNL1        0.0440
     31 C          13.4304   -1.7725    0.0000 C.ar    1  UNL1       -0.0465
     32 C           7.2343    1.7725    0.0000 C.ar    1  UNL1       -0.0465
     33 C          15.1625    1.2275    0.0000 C.ar    1  UNL1       -0.0385
     34 C           5.5022   -1.2275    0.0000 C.ar    1  UNL1       -0.0385
     35 C          11.6705   -1.8071    0.0000 C.2     1  UNL1        0.1876
     36 C           8.9943    1.8071    0.0000 C.2     1  UNL1        0.1876
     37 C          10.7644   -1.2933    0.0000 C.2     1  UNL1       -0.0028
     38 C           9.9003    1.2933    0.0000 C.2     1  UNL1       -0.0028
     39 C          16.8946    0.2275    0.0000 C.ar    1  UNL1        0.0744
     40 C           3.7702   -0.2275    0.0000 C.ar    1  UNL1        0.0744
     41 C          16.0285    1.7275    0.0000 C.ar    1  UNL1       -0.0159
     42 C           4.6362   -1.7275    0.0000 C.ar    1  UNL1       -0.0159
     43 C          14.2965   -2.2725    0.0000 C.3     1  UNL1       -0.0390
     44 C           6.3683    2.2725    0.0000 C.3     1  UNL1       -0.0390
     45 C          16.8946    1.2275    0.0000 C.ar    1  UNL1        0.1286
     46 C           3.7702   -1.2275    0.0000 C.ar    1  UNL1        0.1286
     47 C          16.0125   -1.3140    0.0000 C.2     1  UNL1        0.1876
     48 C           4.6523    1.3140    0.0000 C.2     1  UNL1        0.1876
     49 C          14.2965    1.7275    0.0000 C.3     1  UNL1       -0.0390
     50 C           6.3683   -1.7275    0.0000 C.3     1  UNL1       -0.0390
     51 C          17.8046   -0.2793    0.0000 C.2     1  UNL1        0.1904
     52 C           2.8602    0.2793    0.0000 C.2     1  UNL1        0.1904
     53 C          16.9105   -1.8417    0.0000 C.2     1  UNL1       -0.0107
     54 C           3.7542    1.8417    0.0000 C.2     1  UNL1       -0.0107
     55 C          17.8126   -1.3209    0.0000 C.2     1  UNL1       -0.0106
     56 C           2.8522    1.3209    0.0000 C.2     1  UNL1       -0.0106
     57 H          13.4304   -2.3925    0.0000 H       1  UNL1        0.0628
     58 H           7.2343    2.3925    0.0000 H       1  UNL1        0.0628
     59 H          10.2287   -1.6054    0.0000 H       1  UNL1        0.0663
     60 H          10.4361    1.6054    0.0000 H       1  UNL1        0.0663
     61 H          16.0285    2.3475    0.0000 H       1  UNL1        0.0657
     62 H           4.6362   -2.3475    0.0000 H       1  UNL1        0.0657
     63 H          13.6765   -2.2725    0.0000 H       1  UNL1        0.0278
     64 H          14.2965   -2.8925    0.0000 H       1  UNL1        0.0278
     65 H          14.9165   -2.2725    0.0000 H       1  UNL1        0.0278
     66 H           6.9883    2.2725    0.0000 H       1  UNL1        0.0278
     67 H           6.3683    2.8925    0.0000 H       1  UNL1        0.0278
     68 H           5.7483    2.2725    0.0000 H       1  UNL1        0.0278
     69 H          14.6065    2.2644    0.0000 H       1  UNL1        0.0278
     70 H          13.7595    2.0375    0.0000 H       1  UNL1        0.0278
     71 H          13.9865    1.1906    0.0000 H       1  UNL1        0.0278
     72 H           6.0583   -2.2644    0.0000 H       1  UNL1        0.0278
     73 H           6.9052   -2.0375    0.0000 H       1  UNL1        0.0278
     74 H           6.6783   -1.1906    0.0000 H       1  UNL1        0.0278
     75 H          12.8935    1.5375    0.0000 H       1  UNL1        0.2922
     76 H           7.7712   -1.5375    0.0000 H       1  UNL1        0.2922
     77 H          16.9081   -2.4617    0.0000 H       1  UNL1        0.0657
     78 H           3.7566    2.4617    0.0000 H       1  UNL1        0.0657
     79 H          18.3507   -1.6289    0.0000 H       1  UNL1        0.0657
     80 H           2.3140    1.6289    0.0000 H       1  UNL1        0.0657
     81 H          17.7606    2.3475    0.0000 H       1  UNL1        0.2922
     82 H           2.9042   -2.3475    0.0000 H       1  UNL1        0.2922
@<TRIPOS>BOND
     1     1    21    1
     2     1    75    1
     3     2    22    1
     4     2    76    1
     5     3    27    2
     6     4    28    2
     7     5    35    2
     8     6    36    2
     9     7    45    1
    10     7    81    1
    11     8    46    1
    12     8    82    1
    13     9    47    2
    14    10    48    2
    15    11    51    2
    16    12    52    2
    17    13    17    1
    18    13    21   ar
    19    13    25   ar
    20    14    18    1
    21    14    22   ar
    22    14    26   ar
    23    15    19   ar
    24    15    21   ar
    25    15    27    1
    26    16    20   ar
    27    16    22   ar
    28    16    28    1
    29    17    29   ar
    30    17    33   ar
    31    18    30   ar
    32    18    34   ar
    33    19    31   ar
    34    19    35    1
    35    20    32   ar
    36    20    36    1
    37    23    24    1
    38    23    27    1
    39    23    37    2
    40    24    28    1
    41    24    38    2
    42    25    31   ar
    43    25    43    1
    44    26    32   ar
    45    26    44    1
    46    29    39   ar
    47    29    47    1
    48    30    40   ar
    49    30    48    1
    50    31    57    1
    51    32    58    1
    52    33    41   ar
    53    33    49    1
    54    34    42   ar
    55    34    50    1
    56    35    37    1
    57    36    38    1
    58    37    59    1
    59    38    60    1
    60    39    45   ar
    61    39    51    1
    62    40    46   ar
    63    40    52    1
    64    41    45   ar
    65    41    61    1
    66    42    46   ar
    67    42    62    1
    68    43    63    1
    69    43    64    1
    70    43    65    1
    71    44    66    1
    72    44    67    1
    73    44    68    1
    74    47    53    1
    75    48    54    1
    76    49    69    1
    77    49    70    1
    78    49    71    1
    79    50    72    1
    80    50    73    1
    81    50    74    1
    82    51    55    1
    83    52    56    1
    84    53    55    2
    85    53    77    1
    86    54    56    2
    87    54    78    1
    88    55    79    1
    89    56    80    1
