@<TRIPOS>MOLECULE
IMPHY004787
 52 55 0 0 0
SMALL
GASTEIGER

@<TRIPOS>ATOM
      1 O           5.1350   -1.2857    0.0000 O.3     1  UNL1       -0.3313
      2 O           6.8671   -1.2857    0.0000 O.3     1  UNL1       -0.4532
      3 O           5.1350   -4.2857    0.0000 O.3     1  UNL1       -0.3864
      4 O           3.4030   -3.2857    0.0000 O.3     1  UNL1       -0.3865
      5 O           6.8671   -3.2857    0.0000 O.3     1  UNL1       -0.3829
      6 O           2.5369   -1.7857    0.0000 O.3     1  UNL1       -0.3924
      7 O           7.7331    1.2143    0.0000 O.2     1  UNL1       -0.4505
      8 O           5.1350   -0.2857    0.0000 O.2     1  UNL1       -0.2830
      9 O           4.2308    1.2112    0.0000 O.3     1  UNL1       -0.5058
     10 O           9.4651    1.2143    0.0000 O.3     1  UNL1       -0.5061
     11 O           5.9889    4.2836    0.0000 O.3     1  UNL1       -0.5065
     12 C           5.1350   -3.2857    0.0000 C.3     1  UNL1        0.1152
     13 C           4.2690   -2.7857    0.0000 C.3     1  UNL1        0.1120
     14 C           6.0010   -2.7857    0.0000 C.3     1  UNL1        0.1454
     15 C           4.2690   -1.7857    0.0000 C.3     1  UNL1        0.1140
     16 C           6.0010   -1.7857    0.0000 C.3     1  UNL1        0.2311
     17 C           3.4030   -1.2857    0.0000 C.3     1  UNL1        0.0731
     18 C           6.8671   -0.2857    0.0000 C.ar    1  UNL1        0.2139
     19 C           7.7331    0.2143    0.0000 C.ar    1  UNL1        0.1844
     20 C           6.0010    0.2143    0.0000 C.ar    1  UNL1        0.2382
     21 C           6.0010    1.2143    0.0000 C.ar    1  UNL1        0.1092
     22 C           6.8671    1.7143    0.0000 C.ar    1  UNL1        0.1465
     23 C           8.5991   -0.2857    0.0000 C.ar    1  UNL1        0.0624
     24 C           5.0910    1.7212    0.0000 C.ar    1  UNL1        0.1348
     25 C           6.8831    2.7558    0.0000 C.ar    1  UNL1        0.0231
     26 C           9.4651    0.2143    0.0000 C.ar    1  UNL1        0.1276
     27 C           8.5991   -1.2857    0.0000 C.ar    1  UNL1       -0.0474
     28 C           5.0830    2.7628    0.0000 C.ar    1  UNL1        0.0223
     29 C           5.9851    3.2836    0.0000 C.ar    1  UNL1        0.1239
     30 C          10.3312   -0.2857    0.0000 C.ar    1  UNL1       -0.0195
     31 C           9.4651   -1.7857    0.0000 C.ar    1  UNL1       -0.0609
     32 C          10.3312   -1.2857    0.0000 C.ar    1  UNL1       -0.0583
     33 H           5.6720   -3.5957    0.0000 H       1  UNL1        0.0648
     34 H           4.2690   -3.4057    0.0000 H       1  UNL1        0.0647
     35 H           6.5380   -2.4757    0.0000 H       1  UNL1        0.0683
     36 H           4.2690   -1.1657    0.0000 H       1  UNL1        0.0647
     37 H           6.0010   -1.1657    0.0000 H       1  UNL1        0.1084
     38 H           3.8015   -0.8107    0.0000 H       1  UNL1        0.0584
     39 H           3.0044   -0.8107    0.0000 H       1  UNL1        0.0584
     40 H           4.5981   -4.5957    0.0000 H       1  UNL1        0.2100
     41 H           3.4030   -3.9057    0.0000 H       1  UNL1        0.2100
     42 H           6.8671   -3.9057    0.0000 H       1  UNL1        0.2102
     43 H           2.0000   -1.4757    0.0000 H       1  UNL1        0.2095
     44 H           7.4236    3.0596    0.0000 H       1  UNL1        0.0691
     45 H           8.0622   -1.5957    0.0000 H       1  UNL1        0.0626
     46 H           4.5449    3.0707    0.0000 H       1  UNL1        0.0691
     47 H          10.8681    0.0243    0.0000 H       1  UNL1        0.0654
     48 H           9.4651   -2.4057    0.0000 H       1  UNL1        0.0618
     49 H          10.8681   -1.5957    0.0000 H       1  UNL1        0.0619
     50 H           3.6904    1.5150    0.0000 H       1  UNL1        0.2922
     51 H          10.0021    1.5243    0.0000 H       1  UNL1        0.2922
     52 H           5.4532    4.5957    0.0000 H       1  UNL1        0.2921
@<TRIPOS>BOND
     1     1    15    1
     2     1    16    1
     3    16     2    1
     4     2    18    1
     5     3    12    1
     6     3    40    1
     7    13     4    1
     8     4    41    1
     9     5    14    1
    10     5    42    1
    11     6    17    1
    12     6    43    1
    13     7    19   ar
    14     7    22   ar
    15     8    20    2
    16     9    24    1
    17     9    50    1
    18    10    26    1
    19    10    51    1
    20    11    29    1
    21    11    52    1
    22    12    13    1
    23    12    14    1
    24    12    33    1
    25    13    15    1
    26    13    34    1
    27    14    16    1
    28    14    35    1
    29    15    17    1
    30    15    36    1
    31    16    37    1
    32    17    38    1
    33    17    39    1
    34    18    19   ar
    35    18    20   ar
    36    19    23    1
    37    20    21   ar
    38    21    22   ar
    39    21    24   ar
    40    22    25   ar
    41    23    26   ar
    42    23    27   ar
    43    24    28   ar
    44    25    29   ar
    45    25    44    1
    46    26    30   ar
    47    27    31   ar
    48    27    45    1
    49    28    29   ar
    50    28    46    1
    51    30    32   ar
    52    30    47    1
    53    31    32   ar
    54    31    48    1
    55    32    49    1
