@<TRIPOS>MOLECULE
IMPHY007438
 60 64 0 0 0
SMALL
GASTEIGER

@<TRIPOS>ATOM
      1 O           9.7082   -1.1959    0.0000 O.3     1  UNL1       -0.3580
      2 O           9.0532    1.4857    0.0000 O.3     1  UNL1       -0.4545
      3 O           5.9670   -0.7596    0.0000 O.2     1  UNL1       -0.4709
      4 O           6.8671   -2.2839    0.0000 O.3     1  UNL1       -0.3095
      5 O           8.5136   -2.8000    0.0000 O.3     1  UNL1       -0.3921
      6 O           5.1350   -2.2839    0.0000 O.3     1  UNL1       -0.3404
      7 O          10.6942    0.9315    0.0000 O.2     1  UNL1       -0.2449
      8 O           6.8671   -4.2839    0.0000 O.3     1  UNL1       -0.3841
      9 O           5.1350   -5.2839    0.0000 O.3     1  UNL1       -0.3864
     10 O           3.4030   -4.2839    0.0000 O.3     1  UNL1       -0.3865
     11 O           2.5369   -2.7839    0.0000 O.3     1  UNL1       -0.3924
     12 O          11.3137    5.4720    0.0000 O.3     1  UNL1       -0.5068
     13 C           8.7145   -1.0796    0.0000 C.3     1  UNL1        0.1316
     14 C           9.3116   -0.2774    0.0000 C.3     1  UNL1        0.1284
     15 C           7.7671   -0.7596    0.0000 C.3     1  UNL1        0.0652
     16 C           7.7787    0.2403    0.0000 C.3     1  UNL1        0.0312
     17 C           8.7333    0.5383    0.0000 C.3     1  UNL1        0.1390
     18 C           8.1174   -1.8818    0.0000 C.3     1  UNL1        0.0763
     19 C           6.8671   -1.2839    0.0000 C.3     1  UNL1        0.2097
     20 C           6.8910    0.7853    0.0000 C.2     1  UNL1       -0.0423
     21 C           5.9790    0.2820    0.0000 C.2     1  UNL1        0.0843
     22 C           6.0010   -2.7839    0.0000 C.3     1  UNL1        0.1918
     23 C          10.0337    1.6823    0.0000 C.2     1  UNL1        0.3395
     24 C           6.0010   -3.7839    0.0000 C.3     1  UNL1        0.1342
     25 C           5.1350   -4.2839    0.0000 C.3     1  UNL1        0.1141
     26 C           4.2690   -2.7839    0.0000 C.3     1  UNL1        0.1130
     27 C           4.2690   -3.7839    0.0000 C.3     1  UNL1        0.1119
     28 C          10.3537    2.6298    0.0000 C.ar    1  UNL1        0.0592
     29 C           3.4030   -2.2839    0.0000 C.3     1  UNL1        0.0730
     30 C          11.3342    2.8263    0.0000 C.ar    1  UNL1       -0.0443
     31 C           9.6932    3.3806    0.0000 C.ar    1  UNL1       -0.0443
     32 C          11.6542    3.7738    0.0000 C.ar    1  UNL1       -0.0194
     33 C          10.0132    4.3280    0.0000 C.ar    1  UNL1       -0.0194
     34 C          10.9937    4.5246    0.0000 C.ar    1  UNL1        0.1169
     35 H          10.0526    0.1391    0.0000 H       1  UNL1        0.0663
     36 H           7.8527   -1.6053    0.0000 H       1  UNL1        0.0398
     37 H           7.8838    1.0838    0.0000 H       1  UNL1        0.0386
     38 H           9.3467    0.6282    0.0000 H       1  UNL1        0.0767
     39 H           7.6919   -1.4308    0.0000 H       1  UNL1        0.0587
     40 H           7.5995   -2.2225    0.0000 H       1  UNL1        0.0587
     41 H           7.4046   -1.5929    0.0000 H       1  UNL1        0.1060
     42 H           6.9053    1.4051    0.0000 H       1  UNL1        0.0606
     43 H           5.4470    0.6002    0.0000 H       1  UNL1        0.1021
     44 H           9.1294   -2.8719    0.0000 H       1  UNL1        0.2095
     45 H           6.0010   -2.1639    0.0000 H       1  UNL1        0.0939
     46 H           6.0010   -4.4039    0.0000 H       1  UNL1        0.0671
     47 H           4.5981   -4.5939    0.0000 H       1  UNL1        0.0648
     48 H           4.2690   -2.1639    0.0000 H       1  UNL1        0.0647
     49 H           3.7320   -3.4739    0.0000 H       1  UNL1        0.0647
     50 H           3.8015   -1.8090    0.0000 H       1  UNL1        0.0584
     51 H           3.0044   -1.8090    0.0000 H       1  UNL1        0.0584
     52 H           6.8671   -4.9039    0.0000 H       1  UNL1        0.2101
     53 H           4.5981   -5.5939    0.0000 H       1  UNL1        0.2100
     54 H          11.7437    2.3608    0.0000 H       1  UNL1        0.0627
     55 H           9.0853    3.2587    0.0000 H       1  UNL1        0.0627
     56 H           3.4030   -4.9039    0.0000 H       1  UNL1        0.2100
     57 H           2.0000   -2.4739    0.0000 H       1  UNL1        0.2095
     58 H          12.2621    3.8956    0.0000 H       1  UNL1        0.0654
     59 H           9.6037    4.7935    0.0000 H       1  UNL1        0.0654
     60 H          11.9216    5.5939    0.0000 H       1  UNL1        0.2921
@<TRIPOS>BOND
     1     1    13    1
     2     1    14    1
     3    17     2    1
     4     2    23    1
     5     3    19    1
     6     3    21    1
     7    19     4    1
     8    22     4    1
     9     5    18    1
    10     5    44    1
    11     6    22    1
    12     6    26    1
    13     7    23    2
    14    24     8    1
    15     8    52    1
    16    25     9    1
    17     9    53    1
    18    27    10    1
    19    10    56    1
    20    11    29    1
    21    11    57    1
    22    12    34    1
    23    12    60    1
    24    13    14    1
    25    13    15    1
    26    13    18    1
    27    14    17    1
    28    14    35    1
    29    15    16    1
    30    15    19    1
    31    15    36    1
    32    16    17    1
    33    16    20    1
    34    16    37    1
    35    17    38    1
    36    18    39    1
    37    18    40    1
    38    19    41    1
    39    20    21    2
    40    20    42    1
    41    21    43    1
    42    22    24    1
    43    22    45    1
    44    23    28    1
    45    24    25    1
    46    24    46    1
    47    25    27    1
    48    25    47    1
    49    26    27    1
    50    26    29    1
    51    26    48    1
    52    27    49    1
    53    28    30   ar
    54    28    31   ar
    55    29    50    1
    56    29    51    1
    57    30    32   ar
    58    30    54    1
    59    31    33   ar
    60    31    55    1
    61    32    34   ar
    62    32    58    1
    63    33    34   ar
    64    33    59    1
