@<TRIPOS>MOLECULE
IMPHY014598
 56 59 0 0 0
SMALL
GASTEIGER

@<TRIPOS>ATOM
      1 O           8.1223   -2.3259    0.0000 O.3     1  UNL1       -0.4607
      2 O           5.5103    1.2025    0.0000 O.2     1  UNL1       -0.2920
      3 O           4.6497    0.7056    0.0000 O.2     1  UNL1       -0.2882
      4 O           2.8680   -0.3048    0.0000 O.2     1  UNL1       -0.4919
      5 O           9.8438   -2.3587    0.0000 O.2     1  UNL1       -0.2508
      6 O           8.1403    2.7436    0.0000 O.3     1  UNL1       -0.3903
      7 C           7.2641   -0.8290    0.0000 C.3     1  UNL1        0.0227
      8 C           6.3981   -0.3290    0.0000 C.3     1  UNL1        0.0439
      9 C           5.5320   -0.8290    0.0000 C.3     1  UNL1        0.0477
     10 C           5.5320   -1.8290    0.0000 C.3     1  UNL1       -0.0183
     11 C           7.2641   -1.8290    0.0000 C.3     1  UNL1        0.1099
     12 C           8.1741   -0.3221    0.0000 C.3     1  UNL1        0.0001
     13 C           6.3981   -2.3290    0.0000 C.3     1  UNL1       -0.0108
     14 C           4.6381   -2.3637    0.0000 C.3     1  UNL1       -0.0181
     15 C           7.2641    0.1710    0.0000 C.3     1  UNL1       -0.0549
     16 C           6.3820    0.7125    0.0000 C.2     1  UNL1        0.1660
     17 C           8.1821    0.7195    0.0000 C.2     1  UNL1       -0.0597
     18 C           5.5320    0.1710    0.0000 C.3     1  UNL1       -0.0514
     19 C           9.0134   -0.8504    0.0000 C.3     1  UNL1        0.0521
     20 C           4.6381   -0.2943    0.0000 C.2     1  UNL1        0.2038
     21 C           7.2800    1.2403    0.0000 C.2     1  UNL1        0.0198
     22 C           3.7320   -1.8498    0.0000 C.2     1  UNL1       -0.0356
     23 C           8.9878   -1.8418    0.0000 C.2     1  UNL1        0.3079
     24 C           3.7320   -0.8082    0.0000 C.2     1  UNL1        0.1592
     25 C           4.6497   -3.3636    0.0000 C.3     1  UNL1       -0.0585
     26 C           9.0501    1.2161    0.0000 C.3     1  UNL1       -0.0428
     27 C           7.2762    2.2403    0.0000 C.3     1  UNL1        0.0725
     28 C           2.0000   -0.8015    0.0000 C.3     1  UNL1        0.0789
     29 H           5.6587    0.0903    0.0000 H       1  UNL1        0.0397
     30 H           5.5386   -2.6790    0.0000 H       1  UNL1        0.0317
     31 H           7.2636   -2.6790    0.0000 H       1  UNL1        0.0740
     32 H           8.9198    0.0859    0.0000 H       1  UNL1        0.0358
     33 H           5.9995   -2.8039    0.0000 H       1  UNL1        0.0304
     34 H           6.7966   -2.8039    0.0000 H       1  UNL1        0.0304
     35 H           4.1042   -2.6788    0.0000 H       1  UNL1        0.0344
     36 H           7.8841    0.1710    0.0000 H       1  UNL1        0.0237
     37 H           7.2641    0.7910    0.0000 H       1  UNL1        0.0237
     38 H           6.6441    0.1710    0.0000 H       1  UNL1        0.0237
     39 H           6.1520    0.1710    0.0000 H       1  UNL1        0.0239
     40 H           5.5320    0.7910    0.0000 H       1  UNL1        0.0239
     41 H           4.9120    0.1710    0.0000 H       1  UNL1        0.0239
     42 H           9.6205   -0.9763    0.0000 H       1  UNL1        0.0384
     43 H           9.2452   -0.2753    0.0000 H       1  UNL1        0.0384
     44 H           3.1963   -2.1619    0.0000 H       1  UNL1        0.0612
     45 H           4.0297   -3.3708    0.0000 H       1  UNL1        0.0235
     46 H           4.6568   -3.9836    0.0000 H       1  UNL1        0.0235
     47 H           5.2696   -3.3564    0.0000 H       1  UNL1        0.0235
     48 H           9.3580    0.6780    0.0000 H       1  UNL1        0.0275
     49 H           9.5882    1.5240    0.0000 H       1  UNL1        0.0275
     50 H           8.7422    1.7542    0.0000 H       1  UNL1        0.0275
     51 H           7.0619    2.8220    0.0000 H       1  UNL1        0.0608
     52 H           6.6660    2.1302    0.0000 H       1  UNL1        0.0608
     53 H           8.1379    3.3636    0.0000 H       1  UNL1        0.2098
     54 H           1.6921   -0.2634    0.0000 H       1  UNL1        0.0660
     55 H           1.4619   -1.1094    0.0000 H       1  UNL1        0.0660
     56 H           2.3079   -1.3396    0.0000 H       1  UNL1        0.0660
@<TRIPOS>BOND
     1     1    11    1
     2     1    23    1
     3     2    16    2
     4     3    20    2
     5     4    24    1
     6     4    28    1
     7     5    23    2
     8     6    27    1
     9     6    53    1
    10     7     8    1
    11     7    11    1
    12     7    12    1
    13     7    15    1
    14     8     9    1
    15     8    16    1
    16     8    29    1
    17     9    10    1
    18     9    18    1
    19     9    20    1
    20    10    13    1
    21    10    14    1
    22    10    30    1
    23    11    13    1
    24    11    31    1
    25    12    17    1
    26    12    19    1
    27    12    32    1
    28    13    33    1
    29    13    34    1
    30    14    22    1
    31    14    25    1
    32    14    35    1
    33    15    36    1
    34    15    37    1
    35    15    38    1
    36    16    21    1
    37    17    21    2
    38    17    26    1
    39    18    39    1
    40    18    40    1
    41    18    41    1
    42    19    23    1
    43    19    42    1
    44    19    43    1
    45    20    24    1
    46    21    27    1
    47    22    24    2
    48    22    44    1
    49    25    45    1
    50    25    46    1
    51    25    47    1
    52    26    48    1
    53    26    49    1
    54    26    50    1
    55    27    51    1
    56    27    52    1
    57    28    54    1
    58    28    55    1
    59    28    56    1
