@<TRIPOS>MOLECULE
IMPHY002189
 52 52 0 0 0
SMALL
GASTEIGER

@<TRIPOS>ATOM
      1 C           4.5981    0.7500    0.0000 C.3     1  UNL1       -0.0164
      2 C           3.7320    0.2500    0.0000 C.3     1  UNL1       -0.0425
      3 C           5.4641    0.2500    0.0000 C.3     1  UNL1       -0.0280
      4 C           3.7320   -0.7500    0.0000 C.3     1  UNL1       -0.0312
      5 C           4.5981   -1.2500    0.0000 C.2     1  UNL1       -0.0731
      6 C           4.5981    1.7500    0.0000 C.2     1  UNL1       -0.0729
      7 C           5.4641   -0.7500    0.0000 C.2     1  UNL1       -0.0842
      8 C           4.5981   -2.2500    0.0000 C.3     1  UNL1       -0.0283
      9 C           5.4641    2.2500    0.0000 C.3     1  UNL1       -0.0283
     10 C           3.7320   -2.7500    0.0000 C.3     1  UNL1       -0.0308
     11 C           5.4641    3.2500    0.0000 C.3     1  UNL1       -0.0308
     12 C           3.7320    2.2500    0.0000 C.2     1  UNL1       -0.0992
     13 C           3.7320   -3.7500    0.0000 C.2     1  UNL1       -0.0850
     14 C           6.3301    3.7500    0.0000 C.2     1  UNL1       -0.0850
     15 C           2.8660   -4.2500    0.0000 C.2     1  UNL1       -0.0796
     16 C           6.3301    4.7500    0.0000 C.2     1  UNL1       -0.0796
     17 C           2.8660   -5.2500    0.0000 C.3     1  UNL1       -0.0440
     18 C           2.0000   -3.7500    0.0000 C.3     1  UNL1       -0.0440
     19 C           7.1962    5.2500    0.0000 C.3     1  UNL1       -0.0440
     20 C           5.4641    5.2500    0.0000 C.3     1  UNL1       -0.0440
     21 H           5.1350    1.0600    0.0000 H       1  UNL1        0.0349
     22 H           3.5200    0.8326    0.0000 H       1  UNL1        0.0274
     23 H           3.1215    0.1423    0.0000 H       1  UNL1        0.0274
     24 H           6.0747    0.1423    0.0000 H       1  UNL1        0.0313
     25 H           5.6762    0.8326    0.0000 H       1  UNL1        0.0313
     26 H           3.1215   -0.6423    0.0000 H       1  UNL1        0.0310
     27 H           3.5200   -1.3326    0.0000 H       1  UNL1        0.0310
     28 H           6.0010   -1.0600    0.0000 H       1  UNL1        0.0572
     29 H           4.8101   -2.8326    0.0000 H       1  UNL1        0.0313
     30 H           5.2087   -2.1423    0.0000 H       1  UNL1        0.0313
     31 H           5.6762    1.6674    0.0000 H       1  UNL1        0.0313
     32 H           6.0747    2.3577    0.0000 H       1  UNL1        0.0313
     33 H           3.5200   -2.1674    0.0000 H       1  UNL1        0.0310
     34 H           3.1215   -2.8577    0.0000 H       1  UNL1        0.0310
     35 H           5.2520    3.8326    0.0000 H       1  UNL1        0.0310
     36 H           4.8535    3.1423    0.0000 H       1  UNL1        0.0310
     37 H           3.7320    2.8700    0.0000 H       1  UNL1        0.0534
     38 H           3.1951    1.9400    0.0000 H       1  UNL1        0.0534
     39 H           4.2690   -4.0600    0.0000 H       1  UNL1        0.0572
     40 H           6.8671    3.4400    0.0000 H       1  UNL1        0.0572
     41 H           2.3100   -3.2131    0.0000 H       1  UNL1        0.0274
     42 H           1.4631   -3.4400    0.0000 H       1  UNL1        0.0274
     43 H           1.6900   -4.2869    0.0000 H       1  UNL1        0.0274
     44 H           2.2460   -5.2500    0.0000 H       1  UNL1        0.0274
     45 H           2.8660   -5.8700    0.0000 H       1  UNL1        0.0274
     46 H           3.4860   -5.2500    0.0000 H       1  UNL1        0.0274
     47 H           5.7741    5.7869    0.0000 H       1  UNL1        0.0274
     48 H           7.5062    4.7131    0.0000 H       1  UNL1        0.0274
     49 H           4.9272    5.5600    0.0000 H       1  UNL1        0.0274
     50 H           5.1541    4.7131    0.0000 H       1  UNL1        0.0274
     51 H           7.7331    5.5600    0.0000 H       1  UNL1        0.0274
     52 H           6.8862    5.7869    0.0000 H       1  UNL1        0.0274
@<TRIPOS>BOND
     1     1     2    1
     2     1     3    1
     3     1     6    1
     4     1    21    1
     5     2     4    1
     6     2    22    1
     7     2    23    1
     8     3     7    1
     9     3    24    1
    10     3    25    1
    11     4     5    1
    12     4    26    1
    13     4    27    1
    14     5     7    2
    15     5     8    1
    16     6     9    1
    17     6    12    2
    18     7    28    1
    19     8    10    1
    20     8    29    1
    21     8    30    1
    22     9    11    1
    23     9    31    1
    24     9    32    1
    25    10    13    1
    26    10    33    1
    27    10    34    1
    28    11    14    1
    29    11    35    1
    30    11    36    1
    31    12    37    1
    32    12    38    1
    33    13    15    2
    34    13    39    1
    35    14    16    2
    36    14    40    1
    37    15    17    1
    38    15    18    1
    39    16    19    1
    40    16    20    1
    41    17    44    1
    42    17    45    1
    43    17    46    1
    44    18    41    1
    45    18    42    1
    46    18    43    1
    47    19    48    1
    48    19    51    1
    49    19    52    1
    50    20    47    1
    51    20    49    1
    52    20    50    1
