@<TRIPOS>MOLECULE
IMPHY010573
 39 38 0 0 0
SMALL
GASTEIGER

@<TRIPOS>ATOM
      1 O           9.7942   -1.2500    0.0000 O.2     1  UNL1       -0.2709
      2 N          10.6603    0.2500    0.0000 N.am    1  UNL1       -0.3116
      3 C          12.3923    0.2500    0.0000 C.3     1  UNL1       -0.0311
      4 C          11.5263   -0.2500    0.0000 C.3     1  UNL1        0.0142
      5 C          13.2583   -0.2500    0.0000 C.3     1  UNL1       -0.0612
      6 C          12.3923    1.2500    0.0000 C.3     1  UNL1       -0.0612
      7 C           9.7942   -0.2500    0.0000 C.2     1  UNL1        0.2366
      8 C           7.1962    0.2500    0.0000 C.3     1  UNL1       -0.0309
      9 C           6.3301   -0.2500    0.0000 C.3     1  UNL1       -0.0310
     10 C           8.9282    0.2500    0.0000 C.2     1  UNL1       -0.0038
     11 C           8.0622   -0.2500    0.0000 C.2     1  UNL1       -0.0788
     12 C           5.4641    0.2500    0.0000 C.2     1  UNL1       -0.0837
     13 C           4.5981   -0.2500    0.0000 C.2     1  UNL1       -0.0660
     14 C           3.7320    0.2500    0.0000 C.2     1  UNL1       -0.0662
     15 C           2.8660   -0.2500    0.0000 C.2     1  UNL1       -0.0871
     16 C           2.0000    0.2500    0.0000 C.3     1  UNL1       -0.0465
     17 H          11.8554    0.5600    0.0000 H       1  UNL1        0.0311
     18 H          11.1278   -0.7249    0.0000 H       1  UNL1        0.0465
     19 H          11.9248   -0.7249    0.0000 H       1  UNL1        0.0465
     20 H          12.9483   -0.7869    0.0000 H       1  UNL1        0.0233
     21 H          13.7953   -0.5600    0.0000 H       1  UNL1        0.0233
     22 H          13.0123    1.2500    0.0000 H       1  UNL1        0.0233
     23 H          12.3923    1.8700    0.0000 H       1  UNL1        0.0233
     24 H          11.7723    1.2500    0.0000 H       1  UNL1        0.0233
     25 H          13.5683    0.2869    0.0000 H       1  UNL1        0.0233
     26 H          10.6603    0.8700    0.0000 H       1  UNL1        0.1490
     27 H           7.5947    0.7249    0.0000 H       1  UNL1        0.0310
     28 H           6.7976    0.7249    0.0000 H       1  UNL1        0.0310
     29 H           5.9316   -0.7249    0.0000 H       1  UNL1        0.0310
     30 H           6.7287   -0.7249    0.0000 H       1  UNL1        0.0310
     31 H           8.0622   -0.8700    0.0000 H       1  UNL1        0.0574
     32 H           8.9282    0.8700    0.0000 H       1  UNL1        0.0666
     33 H           5.4641    0.8700    0.0000 H       1  UNL1        0.0572
     34 H           4.5981   -0.8700    0.0000 H       1  UNL1        0.0614
     35 H           3.7320    0.8700    0.0000 H       1  UNL1        0.0614
     36 H           2.8660   -0.8700    0.0000 H       1  UNL1        0.0569
     37 H           2.3100    0.7869    0.0000 H       1  UNL1        0.0272
     38 H           1.4631    0.5600    0.0000 H       1  UNL1        0.0272
     39 H           1.6900   -0.2869    0.0000 H       1  UNL1        0.0272
@<TRIPOS>BOND
     1     1     7    2
     2     2     4    1
     3     2     7   am
     4     2    26    1
     5     3     4    1
     6     3     5    1
     7     3     6    1
     8     3    17    1
     9     4    18    1
    10     4    19    1
    11     5    20    1
    12     5    21    1
    13     5    25    1
    14     6    22    1
    15     6    23    1
    16     6    24    1
    17     7    10    1
    18     8     9    1
    19     8    11    1
    20     8    27    1
    21     8    28    1
    22     9    12    1
    23     9    29    1
    24     9    30    1
    25    10    11    2
    26    10    32    1
    27    11    31    1
    28    12    13    2
    29    12    33    1
    30    13    14    1
    31    13    34    1
    32    14    15    2
    33    14    35    1
    34    15    16    1
    35    15    36    1
    36    16    37    1
    37    16    38    1
    38    16    39    1
