@<TRIPOS>MOLECULE
IMPHY010641
 65 72 0 0 0
SMALL
GASTEIGER

@<TRIPOS>ATOM
      1 O           9.1952   -5.8098    0.0000 O.3     1  UNL1       -0.3258
      2 C           8.0376   -5.1546    0.0000 C.3     1  UNL1        0.1803
      3 C           6.8800   -5.8098    0.0000 C.3     1  UNL1        0.2142
      4 C           6.8800   -7.1421    0.0000 C.3     1  UNL1        0.2166
      5 C           8.0376   -7.7974    0.0000 C.3     1  UNL1        0.2066
      6 C           9.1952   -7.1421    0.0000 C.3     1  UNL1        0.2661
      7 O           5.7443   -5.1546    0.0000 O.3     1  UNL1       -0.2176
      8 O           5.7443   -7.7974    0.0000 O.3     1  UNL1       -0.2175
      9 O           8.0376   -9.1297    0.0000 O.3     1  UNL1       -0.3231
     10 C           6.8800   -9.7849    0.0000 C.3     1  UNL1        0.2694
     11 O           5.7443   -9.1297    0.0000 O.3     1  UNL1       -0.3284
     12 C           4.5867   -9.7849    0.0000 C.3     1  UNL1        0.1507
     13 C           4.5867  -11.1172    0.0000 C.3     1  UNL1        0.2086
     14 C           5.7443  -11.7725    0.0000 C.3     1  UNL1        0.1857
     15 C           6.8800  -11.1172    0.0000 C.3     1  UNL1        0.2374
     16 O          10.3309   -7.7974    0.0000 O.3     1  UNL1       -0.3311
     17 C          11.4885   -7.1421    0.0000 C.3     1  UNL1        0.1199
     18 C          12.6461   -7.7974    0.0000 C.3     1  UNL1        0.0524
     19 C          13.8037   -7.1421    0.0000 C.3     1  UNL1       -0.0147
     20 C          13.8037   -5.8098    0.0000 C.3     1  UNL1       -0.0062
     21 C          14.9395   -5.1327    0.0000 C.3     1  UNL1       -0.0150
     22 C          16.0752   -5.8098    0.0000 C.3     1  UNL1        0.0001
     23 C          16.0752   -7.1421    0.0000 C.3     1  UNL1       -0.0003
     24 C          14.9395   -7.7974    0.0000 C.3     1  UNL1       -0.0038
     25 C          11.4885   -5.8098    0.0000 C.3     1  UNL1        0.0297
     26 C          12.6461   -5.1327    0.0000 C.3     1  UNL1        0.0019
     27 C          14.9395   -3.8004    0.0000 C.3     1  UNL1        0.0214
     28 C          16.0752   -3.1452    0.0000 C.2     1  UNL1       -0.0352
     29 C          17.2328   -3.8004    0.0000 C.2     1  UNL1       -0.0529
     30 C          17.2328   -5.1327    0.0000 C.3     1  UNL1        0.0143
     31 C          18.3904   -5.8098    0.0000 C.3     1  UNL1        0.0042
     32 C          19.5480   -5.1327    0.0000 C.3     1  UNL1        0.0110
     33 C          19.5480   -3.8004    0.0000 C.3     1  UNL1        0.0936
     34 C          20.6837   -3.1452    0.0000 C.3     1  UNL1        0.0107
     35 C          20.6837   -1.8128    0.0000 C.3     1  UNL1        0.0005
     36 C          19.5480   -1.1576    0.0000 C.3     1  UNL1        0.0000
     37 C          18.3904   -1.8128    0.0000 C.3     1  UNL1        0.0003
     38 C          18.3904   -3.1452    0.0000 C.3     1  UNL1        0.0056
     39 C           3.4509   -9.1297    0.0000 C.3     1  UNL1        0.0350
     40 O           3.4509  -11.7725    0.0000 O.3     1  UNL1       -0.2178
     41 O           5.7443  -13.0830    0.0000 O.3     1  UNL1       -0.3255
     42 C           4.3683  -13.8692    0.0000 C.3     1  UNL1        0.2695
     43 O           3.2980  -13.0830    0.0000 O.3     1  UNL1       -0.3256
     44 C           2.2278  -13.8692    0.0000 C.3     1  UNL1        0.1836
     45 C           2.6428  -15.1360    0.0000 C.3     1  UNL1        0.2168
     46 C           3.9533  -15.1360    0.0000 C.3     1  UNL1        0.2404
     47 O           8.0376  -11.7725    0.0000 O.3     1  UNL1       -0.2150
     48 C          13.3232   -8.9331    0.0000 C.3     1  UNL1        0.1840
     49 O          14.6337   -8.9331    0.0000 O.3     1  UNL1       -0.2204
     50 C          11.9690   -8.9331    0.0000 C.3     1  UNL1        0.0047
     51 C          13.8037   -4.4556    0.0000 C.3     1  UNL1       -0.0006
     52 C          16.0752   -4.4556    0.0000 C.3     1  UNL1        0.0000
     53 C          17.2328   -6.4650    0.0000 C.3     1  UNL1        0.0040
     54 C          20.6837   -4.4556    0.0000 C.2     1  UNL1        0.3638
     55 O          21.8413   -3.8004    0.0000 O.co2   1  UNL1       -0.2457
     56 C          20.2032    0.0000    0.0000 C.3     1  UNL1        0.0000
     57 C          18.8709    0.0000    0.0000 C.3     1  UNL1        0.0000
     58 C           1.1357  -13.2577    0.0000 C.3     1  UNL1        0.2142
     59 O           0.0000  -13.9129    0.0000 O.3     1  UNL1       -0.2176
     60 O           1.8565  -16.2063    0.0000 O.3     1  UNL1       -0.2175
     61 O           4.7396  -16.2063    0.0000 O.3     1  UNL1       -0.2149
     62 O          20.6837   -5.8098    0.0000 O.co2   1  UNL1       -0.2457
     63 H          13.8037   -8.4526    0.0000 H       1  UNL1        0.0320
     64 H          14.9395   -6.4650    0.0000 H       1  UNL1        0.0322
     65 H          17.2765   -2.3807    0.0000 H       1  UNL1        0.0363
@<TRIPOS>BOND
     1     1     6    1
     2     1     2    1
     3     2     3    1
     4     3     4    1
     5     3     7    1
     6     4     5    1
     7     4     8    1
     8     5     6    1
     9     5     9    1
    10     6    16    1
    11    10     9    1
    12    10    15    1
    13    10    11    1
    14    11    12    1
    15    12    13    1
    16    12    39    1
    17    13    14    1
    18    13    40    1
    19    14    15    1
    20    14    41    1
    21    15    47    1
    22    17    16    1
    23    17    18    1
    24    17    25    1
    25    18    19    1
    26    18    48    1
    27    18    50    1
    28    19    20    1
    29    19    24    1
    30    19    63    1
    31    20    26    1
    32    20    21    1
    33    20    51    1
    34    21    22    1
    35    21    27    1
    36    21    64    1
    37    22    23    1
    38    22    30    1
    39    22    52    1
    40    23    24    1
    41    25    26    1
    42    27    28    1
    43    28    29    2
    44    29    38    1
    45    29    30    1
    46    30    53    1
    47    30    31    1
    48    31    32    1
    49    32    33    1
    50    33    34    1
    51    33    38    1
    52    33    54    1
    53    34    35    1
    54    35    36    1
    55    36    37    1
    56    36    56    1
    57    36    57    1
    58    37    38    1
    59    38    65    1
    60    42    41    1
    61    42    43    1
    62    42    46    1
    63    43    44    1
    64    44    45    1
    65    44    58    1
    66    45    46    1
    67    45    60    1
    68    46    61    1
    69    48    49    1
    70    54    55   ar
    71    54    62   ar
    72    58    59    1
