@<TRIPOS>MOLECULE
IMPHY009708
 25 25 0 0 0
SMALL
GASTEIGER

@<TRIPOS>ATOM
      1 O           2.8660    2.0000    0.0000 O.3     1  UNL1       -0.4260
      2 O           4.5981    2.0000    0.0000 O.2     1  UNL1       -0.2507
      3 C           2.8660   -1.0000    0.0000 C.ar    1  UNL1       -0.0434
      4 C           2.8660   -2.0000    0.0000 C.3     1  UNL1       -0.0097
      5 C           3.7320   -0.5000    0.0000 C.ar    1  UNL1       -0.0548
      6 C           2.0000   -0.5000    0.0000 C.ar    1  UNL1       -0.0548
      7 C           2.8660    1.0000    0.0000 C.ar    1  UNL1        0.1316
      8 C           3.7320    0.5000    0.0000 C.ar    1  UNL1       -0.0190
      9 C           2.0000    0.5000    0.0000 C.ar    1  UNL1       -0.0190
     10 C           2.0000   -2.5000    0.0000 C.2     1  UNL1       -0.0868
     11 C           3.7320    2.5000    0.0000 C.2     1  UNL1        0.3092
     12 C           2.0000   -3.5000    0.0000 C.2     1  UNL1       -0.1023
     13 C           3.7320    3.5000    0.0000 C.3     1  UNL1        0.0336
     14 H           3.0781   -2.5826    0.0000 H       1  UNL1        0.0355
     15 H           3.4766   -1.8923    0.0000 H       1  UNL1        0.0355
     16 H           4.2690   -0.8100    0.0000 H       1  UNL1        0.0622
     17 H           1.4631   -0.8100    0.0000 H       1  UNL1        0.0622
     18 H           4.2690    0.8100    0.0000 H       1  UNL1        0.0654
     19 H           1.4631    0.8100    0.0000 H       1  UNL1        0.0654
     20 H           1.4631   -2.1900    0.0000 H       1  UNL1        0.0570
     21 H           1.4631   -3.8100    0.0000 H       1  UNL1        0.0532
     22 H           2.5369   -3.8100    0.0000 H       1  UNL1        0.0532
     23 H           4.3520    3.5000    0.0000 H       1  UNL1        0.0342
     24 H           3.7320    4.1200    0.0000 H       1  UNL1        0.0342
     25 H           3.1120    3.5000    0.0000 H       1  UNL1        0.0342
@<TRIPOS>BOND
     1     1     7    1
     2     1    11    1
     3     2    11    2
     4     3     4    1
     5     3     5   ar
     6     3     6   ar
     7     4    10    1
     8     4    14    1
     9     4    15    1
    10     5     8   ar
    11     5    16    1
    12     6     9   ar
    13     6    17    1
    14     7     8   ar
    15     7     9   ar
    16     8    18    1
    17     9    19    1
    18    10    12    2
    19    10    20    1
    20    11    13    1
    21    12    21    1
    22    12    22    1
    23    13    23    1
    24    13    24    1
    25    13    25    1
