@<TRIPOS>MOLECULE
IMPHY009213
 40 40 0 0 0
SMALL
GASTEIGER

@<TRIPOS>ATOM
      1 O           5.4427    1.8244    0.0000 O.2     1  UNL1       -0.2876
      2 C           2.9595    0.3310    0.0000 C.3     1  UNL1       -0.0165
      3 C           2.9595   -0.6690    0.0000 C.3     1  UNL1       -0.0442
      4 C           4.6325   -1.1173    0.0000 C.3     1  UNL1       -0.0436
      5 C           3.6666   -1.3761    0.0000 C.3     1  UNL1       -0.0497
      6 C           5.3396   -1.8244    0.0000 C.3     1  UNL1       -0.0470
      7 C           2.0000    0.0493    0.0000 C.3     1  UNL1       -0.0563
      8 C           2.2694    1.0547    0.0000 C.3     1  UNL1       -0.0563
      9 C           5.3396   -0.4102    0.0000 C.3     1  UNL1       -0.0624
     10 C           3.8255    0.8310    0.0000 C.2     1  UNL1       -0.0747
     11 C           6.3056   -1.5656    0.0000 C.3     1  UNL1       -0.0339
     12 C           6.8056   -0.6995    0.0000 C.2     1  UNL1       -0.0775
     13 C           4.6915    0.3310    0.0000 C.2     1  UNL1       -0.0181
     14 C           6.5467    0.2664    0.0000 C.2     1  UNL1       -0.0077
     15 C           5.5576    0.8310    0.0000 C.2     1  UNL1        0.1813
     16 C           7.4232    0.7479    0.0000 C.3     1  UNL1       -0.0364
     17 H           2.3606   -0.5085    0.0000 H       1  UNL1        0.0273
     18 H           2.6495   -1.2059    0.0000 H       1  UNL1        0.0273
     19 H           4.3225   -0.5803    0.0000 H       1  UNL1        0.0298
     20 H           3.1587   -1.7317    0.0000 H       1  UNL1        0.0268
     21 H           3.9286   -1.9380    0.0000 H       1  UNL1        0.0268
     22 H           4.8318   -2.1800    0.0000 H       1  UNL1        0.0271
     23 H           5.6017   -2.3863    0.0000 H       1  UNL1        0.0271
     24 H           2.7181    1.4826    0.0000 H       1  UNL1        0.0238
     25 H           1.8253    0.6442    0.0000 H       1  UNL1        0.0238
     26 H           1.4051   -0.1254    0.0000 H       1  UNL1        0.0238
     27 H           2.1747   -0.5456    0.0000 H       1  UNL1        0.0238
     28 H           1.8416    1.5035    0.0000 H       1  UNL1        0.0238
     29 H           1.8207    0.6269    0.0000 H       1  UNL1        0.0238
     30 H           5.7780   -0.8486    0.0000 H       1  UNL1        0.0232
     31 H           5.7780    0.0282    0.0000 H       1  UNL1        0.0232
     32 H           4.9012    0.0282    0.0000 H       1  UNL1        0.0232
     33 H           3.8255    1.4510    0.0000 H       1  UNL1        0.0579
     34 H           6.3056   -2.1856    0.0000 H       1  UNL1        0.0308
     35 H           6.9044   -1.7260    0.0000 H       1  UNL1        0.0308
     36 H           7.4202   -0.7805    0.0000 H       1  UNL1        0.0576
     37 H           4.6915   -0.2890    0.0000 H       1  UNL1        0.0653
     38 H           7.7217    0.2046    0.0000 H       1  UNL1        0.0279
     39 H           7.9665    1.0465    0.0000 H       1  UNL1        0.0279
     40 H           7.1246    1.2913    0.0000 H       1  UNL1        0.0279
@<TRIPOS>BOND
     1     1    15    2
     2     2     3    1
     3     2     7    1
     4     2     8    1
     5     2    10    1
     6     3     5    1
     7     3    17    1
     8     3    18    1
     9     4     5    1
    10     4     6    1
    11     4     9    1
    12     4    19    1
    13     5    20    1
    14     5    21    1
    15     6    11    1
    16     6    22    1
    17     6    23    1
    18     7    25    1
    19     7    26    1
    20     7    27    1
    21     8    24    1
    22     8    28    1
    23     8    29    1
    24     9    30    1
    25     9    31    1
    26     9    32    1
    27    10    13    2
    28    10    33    1
    29    11    12    1
    30    11    34    1
    31    11    35    1
    32    12    14    2
    33    12    36    1
    34    13    15    1
    35    13    37    1
    36    14    15    1
    37    14    16    1
    38    16    38    1
    39    16    39    1
    40    16    40    1
