@<TRIPOS>MOLECULE
IMPHY015309
 25 25 0 0 0
SMALL
GASTEIGER

@<TRIPOS>ATOM
      1 O           2.0000   -1.1230    0.0000 O.3     1  UNL1       -0.3918
      2 C           3.7320    0.8770    0.0000 C.3     1  UNL1       -0.0325
      3 C           2.8660    0.3770    0.0000 C.3     1  UNL1       -0.0217
      4 C           4.5981    0.3770    0.0000 C.3     1  UNL1       -0.0477
      5 C           2.8660   -0.6230    0.0000 C.3     1  UNL1        0.0557
      6 C           4.5981   -0.6230    0.0000 C.3     1  UNL1       -0.0502
      7 C           3.7320   -1.1230    0.0000 C.3     1  UNL1       -0.0268
      8 C           4.2320    1.7430    0.0000 C.3     1  UNL1       -0.0597
      9 C           3.2320    1.7430    0.0000 C.3     1  UNL1       -0.0597
     10 H           2.6540    0.9596    0.0000 H       1  UNL1        0.0295
     11 H           2.2554    0.2693    0.0000 H       1  UNL1        0.0295
     12 H           5.2087    0.2693    0.0000 H       1  UNL1        0.0270
     13 H           4.8101    0.9596    0.0000 H       1  UNL1        0.0270
     14 H           2.8660   -1.2430    0.0000 H       1  UNL1        0.0593
     15 H           4.8101   -1.2056    0.0000 H       1  UNL1        0.0266
     16 H           5.2087   -0.5154    0.0000 H       1  UNL1        0.0266
     17 H           3.3335   -1.5980    0.0000 H       1  UNL1        0.0290
     18 H           4.1306   -1.5980    0.0000 H       1  UNL1        0.0290
     19 H           4.7690    1.4330    0.0000 H       1  UNL1        0.0235
     20 H           4.5420    2.2800    0.0000 H       1  UNL1        0.0235
     21 H           3.6951    2.0530    0.0000 H       1  UNL1        0.0235
     22 H           3.7690    2.0530    0.0000 H       1  UNL1        0.0235
     23 H           2.9220    2.2800    0.0000 H       1  UNL1        0.0235
     24 H           2.6951    1.4330    0.0000 H       1  UNL1        0.0235
     25 H           2.0000   -1.7430    0.0000 H       1  UNL1        0.2098
@<TRIPOS>BOND
     1     1     5    1
     2     1    25    1
     3     2     3    1
     4     2     4    1
     5     2     8    1
     6     2     9    1
     7     3     5    1
     8     3    10    1
     9     3    11    1
    10     4     6    1
    11     4    12    1
    12     4    13    1
    13     5     7    1
    14     5    14    1
    15     6     7    1
    16     6    15    1
    17     6    16    1
    18     7    17    1
    19     7    18    1
    20     8    19    1
    21     8    20    1
    22     8    21    1
    23     9    22    1
    24     9    23    1
    25     9    24    1
