@<TRIPOS>MOLECULE
IMPHY008270
 67 72 0 0 0
SMALL
GASTEIGER

@<TRIPOS>ATOM
      1 O           6.3580    2.0966    0.0000 O.2     1  UNL1       -0.4537
      2 O           6.3301   -1.8687    0.0000 O.2     1  UNL1       -0.4544
      3 O           2.8660    2.1313    0.0000 O.3     1  UNL1       -0.4943
      4 O           4.5981    5.1313    0.0000 O.3     1  UNL1       -0.5058
      5 O           2.8660    1.1313    0.0000 O.3     1  UNL1       -0.5062
      6 O           6.3465    5.1659    0.0000 O.2     1  UNL1       -0.2869
      7 O           8.0743   -4.9380    0.0000 O.3     1  UNL1       -0.4949
      8 O           9.8324   -1.8656    0.0000 O.3     1  UNL1       -0.5058
      9 O           8.9282   -0.3687    0.0000 O.2     1  UNL1       -0.2869
     10 O          10.7205    0.5971    0.0000 O.3     1  UNL1       -0.4951
     11 C           4.5981    2.1313    0.0000 C.ar    1  UNL1        0.0704
     12 C           5.4641    2.6313    0.0000 C.ar    1  UNL1        0.1541
     13 C           4.5981    1.1313    0.0000 C.ar    1  UNL1        0.0313
     14 C           5.4641    3.6313    0.0000 C.ar    1  UNL1        0.1061
     15 C           3.7320    2.6313    0.0000 C.ar    1  UNL1        0.1349
     16 C           5.4641   -0.3687    0.0000 C.ar    1  UNL1        0.0182
     17 C           5.4641    0.6313    0.0000 C.ar    1  UNL1       -0.0396
     18 C           4.5981    4.1313    0.0000 C.ar    1  UNL1        0.1347
     19 C           3.7320    0.6313    0.0000 C.ar    1  UNL1        0.1248
     20 C           3.7320    3.6313    0.0000 C.ar    1  UNL1        0.0231
     21 C           6.3580    4.1660    0.0000 C.ar    1  UNL1        0.1966
     22 C           7.2641    2.6105    0.0000 C.ar    1  UNL1        0.1393
     23 C           6.3301   -0.8687    0.0000 C.ar    1  UNL1        0.1392
     24 C           4.5981   -0.8687    0.0000 C.ar    1  UNL1       -0.0476
     25 C           7.2641    3.6521    0.0000 C.ar    1  UNL1        0.0288
     26 C           3.7320   -0.3687    0.0000 C.ar    1  UNL1       -0.0189
     27 C           8.1282    2.1071    0.0000 C.ar    1  UNL1        0.0176
     28 C           8.0622   -1.8687    0.0000 C.ar    1  UNL1        0.1055
     29 C           7.1962   -2.3687    0.0000 C.ar    1  UNL1        0.1462
     30 C           7.1962   -0.3687    0.0000 C.ar    1  UNL1        0.0288
     31 C           8.0622   -0.8687    0.0000 C.ar    1  UNL1        0.1966
     32 C           8.9722   -2.3756    0.0000 C.ar    1  UNL1        0.1347
     33 C           7.1801   -3.4102    0.0000 C.ar    1  UNL1        0.0233
     34 C           8.1244    1.1072    0.0000 C.ar    1  UNL1       -0.0476
     35 C           8.9962    2.6038    0.0000 C.ar    1  UNL1       -0.0476
     36 C           8.0781   -3.9380    0.0000 C.ar    1  UNL1        0.1271
     37 C           8.9802   -3.4172    0.0000 C.ar    1  UNL1        0.0225
     38 C           2.0000    2.6313    0.0000 C.3     1  UNL1        0.0788
     39 C           8.9884    0.6038    0.0000 C.ar    1  UNL1       -0.0193
     40 C           9.8602    2.1005    0.0000 C.ar    1  UNL1       -0.0193
     41 C           9.8564    1.1005    0.0000 C.ar    1  UNL1        0.1201
     42 C           8.9384   -5.4413    0.0000 C.3     1  UNL1        0.0788
     43 C          11.5884    1.0938    0.0000 C.3     1  UNL1        0.0788
     44 H           6.0010    0.9413    0.0000 H       1  UNL1        0.0632
     45 H           3.1951    3.9413    0.0000 H       1  UNL1        0.0691
     46 H           4.5981   -1.4887    0.0000 H       1  UNL1        0.0626
     47 H           7.7998    3.9642    0.0000 H       1  UNL1        0.0693
     48 H           3.1951   -0.6787    0.0000 H       1  UNL1        0.0654
     49 H           7.1962    0.2513    0.0000 H       1  UNL1        0.0693
     50 H           6.6396   -3.7140    0.0000 H       1  UNL1        0.0691
     51 H           7.5862    0.7992    0.0000 H       1  UNL1        0.0626
     52 H           8.9985    3.2238    0.0000 H       1  UNL1        0.0626
     53 H           9.5183   -3.7251    0.0000 H       1  UNL1        0.0691
     54 H           4.0611    5.4413    0.0000 H       1  UNL1        0.2922
     55 H           2.3291    0.8213    0.0000 H       1  UNL1        0.2922
     56 H           2.3100    3.1682    0.0000 H       1  UNL1        0.0660
     57 H           1.4631    2.9413    0.0000 H       1  UNL1        0.0660
     58 H           1.6900    2.0944    0.0000 H       1  UNL1        0.0660
     59 H           8.9860   -0.0162    0.0000 H       1  UNL1        0.0654
     60 H          10.3984    2.4084    0.0000 H       1  UNL1        0.0654
     61 H          10.3728   -2.1693    0.0000 H       1  UNL1        0.2922
     62 H           8.6263   -5.9770    0.0000 H       1  UNL1        0.0660
     63 H           9.4741   -5.7534    0.0000 H       1  UNL1        0.0660
     64 H           9.2504   -4.9056    0.0000 H       1  UNL1        0.0660
     65 H          11.8964    0.5557    0.0000 H       1  UNL1        0.0660
     66 H          12.1266    1.4017    0.0000 H       1  UNL1        0.0660
     67 H          11.2805    1.6319    0.0000 H       1  UNL1        0.0660
@<TRIPOS>BOND
     1     1    12   ar
     2     1    22   ar
     3     2    23   ar
     4     2    29   ar
     5     3    15    1
     6     3    38    1
     7     4    18    1
     8     4    54    1
     9     5    19    1
    10     5    55    1
    11     6    21    2
    12     7    36    1
    13     7    42    1
    14     8    32    1
    15     8    61    1
    16     9    31    2
    17    10    41    1
    18    10    43    1
    19    11    12   ar
    20    11    13    1
    21    11    15   ar
    22    12    14   ar
    23    13    17   ar
    24    13    19   ar
    25    14    18   ar
    26    14    21   ar
    27    15    20   ar
    28    16    17   ar
    29    16    23    1
    30    16    24   ar
    31    17    44    1
    32    18    20   ar
    33    19    26   ar
    34    20    45    1
    35    21    25   ar
    36    22    25   ar
    37    22    27    1
    38    23    30   ar
    39    24    26   ar
    40    24    46    1
    41    25    47    1
    42    26    48    1
    43    27    34   ar
    44    27    35   ar
    45    28    29   ar
    46    28    31   ar
    47    28    32   ar
    48    29    33   ar
    49    30    31   ar
    50    30    49    1
    51    32    37   ar
    52    33    36   ar
    53    33    50    1
    54    34    39   ar
    55    34    51    1
    56    35    40   ar
    57    35    52    1
    58    36    37   ar
    59    37    53    1
    60    38    56    1
    61    38    57    1
    62    38    58    1
    63    39    41   ar
    64    39    59    1
    65    40    41   ar
    66    40    60    1
    67    42    62    1
    68    42    63    1
    69    42    64    1
    70    43    65    1
    71    43    66    1
    72    43    67    1
