@<TRIPOS>MOLECULE
IMPHY016393
 22 21 0 0 0
SMALL
GASTEIGER

@<TRIPOS>ATOM
      1 C           3.7320   -0.2500    0.0000 C.3     1  UNL1       -0.0424
      2 C           2.8660   -0.7500    0.0000 C.3     1  UNL1       -0.0551
      3 C           4.5981   -0.7500    0.0000 C.3     1  UNL1        0.0091
      4 C           2.0000   -0.2500    0.0000 C.3     1  UNL1       -0.0652
      5 C           5.4641   -0.2500    0.0000 C.1     1  UNL1       -0.1022
      6 C           7.1962    0.7500    0.0000 C.3     1  UNL1        0.0063
      7 C           6.3301    0.2500    0.0000 C.1     1  UNL1       -0.1025
      8 C           8.0622    0.2500    0.0000 C.3     1  UNL1       -0.0543
      9 H           4.1306    0.2249    0.0000 H       1  UNL1        0.0274
     10 H           3.3335    0.2249    0.0000 H       1  UNL1        0.0274
     11 H           2.4675   -1.2250    0.0000 H       1  UNL1        0.0263
     12 H           3.2646   -1.2250    0.0000 H       1  UNL1        0.0263
     13 H           4.1996   -1.2250    0.0000 H       1  UNL1        0.0397
     14 H           4.9966   -1.2250    0.0000 H       1  UNL1        0.0397
     15 H           2.3100    0.2869    0.0000 H       1  UNL1        0.0230
     16 H           1.4631    0.0600    0.0000 H       1  UNL1        0.0230
     17 H           1.6900   -0.7869    0.0000 H       1  UNL1        0.0230
     18 H           7.5947    1.2250    0.0000 H       1  UNL1        0.0395
     19 H           6.7976    1.2250    0.0000 H       1  UNL1        0.0395
     20 H           7.7522   -0.2869    0.0000 H       1  UNL1        0.0239
     21 H           8.5991   -0.0600    0.0000 H       1  UNL1        0.0239
     22 H           8.3722    0.7869    0.0000 H       1  UNL1        0.0239
@<TRIPOS>BOND
     1     1     2    1
     2     1     3    1
     3     1     9    1
     4     1    10    1
     5     2     4    1
     6     2    11    1
     7     2    12    1
     8     3     5    1
     9     3    13    1
    10     3    14    1
    11     4    15    1
    12     4    16    1
    13     4    17    1
    14     5     7    3
    15     6     7    1
    16     6     8    1
    17     6    18    1
    18     6    19    1
    19     8    20    1
    20     8    21    1
    21     8    22    1
