@<TRIPOS>MOLECULE
IMPHY007640
 74 77 0 0 0
SMALL
GASTEIGER

@<TRIPOS>ATOM
      1 O          12.3923    0.4050    0.0000 O.2     1  UNL1       -0.4702
      2 O          13.2583   -1.0950    0.0000 O.3     1  UNL1       -0.3096
      3 O          15.3812    2.6602    0.0000 O.3     1  UNL1       -0.3886
      4 O          16.6542    0.9050    0.0000 O.3     1  UNL1       -0.3889
      5 O          11.5263   -1.0950    0.0000 O.3     1  UNL1       -0.3393
      6 O          12.3923    3.4050    0.0000 O.3     1  UNL1       -0.4646
      7 O          13.2583   -3.0950    0.0000 O.3     1  UNL1       -0.3841
      8 O          14.1244    3.4050    0.0000 O.2     1  UNL1       -0.2452
      9 O          11.5263   -4.0950    0.0000 O.3     1  UNL1       -0.3864
     10 O           9.7942   -3.0950    0.0000 O.3     1  UNL1       -0.3864
     11 O           8.9282   -1.5950    0.0000 O.3     1  UNL1       -0.4589
     12 O           8.0622   -0.0950    0.0000 O.2     1  UNL1       -0.2456
     13 O           2.8660   -3.0950    0.0000 O.3     1  UNL1       -0.4951
     14 C          14.1244    0.4050    0.0000 C.3     1  UNL1        0.0362
     15 C          14.1244    1.4050    0.0000 C.3     1  UNL1        0.0311
     16 C          15.0706    0.1003    0.0000 C.3     1  UNL1       -0.0062
     17 C          15.0706    1.7097    0.0000 C.3     1  UNL1        0.0888
     18 C          15.6542    0.9050    0.0000 C.3     1  UNL1        0.0847
     19 C          13.2583   -0.0950    0.0000 C.3     1  UNL1        0.2072
     20 C          13.2583    1.9050    0.0000 C.2     1  UNL1        0.0768
     21 C          15.3812   -0.8503    0.0000 C.3     1  UNL1       -0.0595
     22 C          12.3923    1.4050    0.0000 C.2     1  UNL1        0.0982
     23 C          12.3923   -1.5950    0.0000 C.3     1  UNL1        0.1919
     24 C          13.2583    2.9050    0.0000 C.2     1  UNL1        0.3382
     25 C          12.3923   -2.5950    0.0000 C.3     1  UNL1        0.1343
     26 C          11.5263   -3.0950    0.0000 C.3     1  UNL1        0.1141
     27 C          10.6603   -2.5950    0.0000 C.3     1  UNL1        0.1129
     28 C          10.6603   -1.5950    0.0000 C.3     1  UNL1        0.1240
     29 C           9.7942   -1.0950    0.0000 C.3     1  UNL1        0.1215
     30 C          12.3923    4.4050    0.0000 C.3     1  UNL1        0.0820
     31 C           8.0622   -1.0950    0.0000 C.2     1  UNL1        0.3320
     32 C           7.1962   -1.5950    0.0000 C.2     1  UNL1        0.0231
     33 C           6.3301   -1.0950    0.0000 C.2     1  UNL1       -0.0478
     34 C           5.4641   -1.5950    0.0000 C.ar    1  UNL1       -0.0246
     35 C           4.5981   -1.0950    0.0000 C.ar    1  UNL1       -0.0511
     36 C           5.4641   -2.5950    0.0000 C.ar    1  UNL1       -0.0511
     37 C           3.7320   -1.5950    0.0000 C.ar    1  UNL1       -0.0194
     38 C           4.5981   -3.0950    0.0000 C.ar    1  UNL1       -0.0194
     39 C           3.7320   -2.5950    0.0000 C.ar    1  UNL1        0.1201
     40 C           2.0000   -2.5950    0.0000 C.3     1  UNL1        0.0788
     41 H          14.2143   -0.4402    0.0000 H       1  UNL1        0.0371
     42 H          14.2143    2.2502    0.0000 H       1  UNL1        0.0383
     43 H          15.6831    0.0041    0.0000 H       1  UNL1        0.0329
     44 H          15.6831    1.8059    0.0000 H       1  UNL1        0.0625
     45 H          15.9359    1.4573    0.0000 H       1  UNL1        0.0622
     46 H          13.7953   -0.4050    0.0000 H       1  UNL1        0.1059
     47 H          14.7919   -1.0429    0.0000 H       1  UNL1        0.0233
     48 H          15.5738   -1.4396    0.0000 H       1  UNL1        0.0233
     49 H          15.9706   -0.6576    0.0000 H       1  UNL1        0.0233
     50 H          11.8554    1.7150    0.0000 H       1  UNL1        0.1029
     51 H          15.9879    2.7881    0.0000 H       1  UNL1        0.2099
     52 H          16.9642    0.3681    0.0000 H       1  UNL1        0.2099
     53 H          12.9292   -1.9050    0.0000 H       1  UNL1        0.0939
     54 H          12.3923   -3.2150    0.0000 H       1  UNL1        0.0671
     55 H          10.9893   -3.4050    0.0000 H       1  UNL1        0.0648
     56 H          10.1233   -2.2850    0.0000 H       1  UNL1        0.0647
     57 H          10.6603   -0.9750    0.0000 H       1  UNL1        0.0658
     58 H          10.1928   -0.6201    0.0000 H       1  UNL1        0.0725
     59 H           9.3957   -0.6201    0.0000 H       1  UNL1        0.0725
     60 H          13.2583   -3.7150    0.0000 H       1  UNL1        0.2101
     61 H          10.9893   -4.4050    0.0000 H       1  UNL1        0.2100
     62 H           9.7942   -3.7150    0.0000 H       1  UNL1        0.2100
     63 H          13.0123    4.4050    0.0000 H       1  UNL1        0.0661
     64 H          12.3923    5.0250    0.0000 H       1  UNL1        0.0661
     65 H          11.7723    4.4050    0.0000 H       1  UNL1        0.0661
     66 H           7.1962   -2.2150    0.0000 H       1  UNL1        0.0689
     67 H           6.3301   -0.4750    0.0000 H       1  UNL1        0.0626
     68 H           4.5981   -0.4750    0.0000 H       1  UNL1        0.0625
     69 H           6.0010   -2.9050    0.0000 H       1  UNL1        0.0625
     70 H           3.1951   -1.2850    0.0000 H       1  UNL1        0.0654
     71 H           4.5981   -3.7150    0.0000 H       1  UNL1        0.0654
     72 H           2.3100   -2.0581    0.0000 H       1  UNL1        0.0660
     73 H           1.4631   -2.2850    0.0000 H       1  UNL1        0.0660
     74 H           1.6900   -3.1319    0.0000 H       1  UNL1        0.0660
@<TRIPOS>BOND
     1     1    19    1
     2     1    22    1
     3    19     2    1
     4    23     2    1
     5    17     3    1
     6     3    51    1
     7    18     4    1
     8     4    52    1
     9     5    23    1
    10     5    28    1
    11     6    24    1
    12     6    30    1
    13    25     7    1
    14     7    60    1
    15     8    24    2
    16    26     9    1
    17     9    61    1
    18    27    10    1
    19    10    62    1
    20    11    29    1
    21    11    31    1
    22    12    31    2
    23    13    39    1
    24    13    40    1
    25    14    15    1
    26    14    16    1
    27    14    19    1
    28    14    41    1
    29    15    17    1
    30    15    20    1
    31    15    42    1
    32    16    18    1
    33    16    21    1
    34    16    43    1
    35    17    18    1
    36    17    44    1
    37    18    45    1
    38    19    46    1
    39    20    22    2
    40    20    24    1
    41    21    47    1
    42    21    48    1
    43    21    49    1
    44    22    50    1
    45    23    25    1
    46    23    53    1
    47    25    26    1
    48    25    54    1
    49    26    27    1
    50    26    55    1
    51    27    28    1
    52    27    56    1
    53    28    29    1
    54    28    57    1
    55    29    58    1
    56    29    59    1
    57    30    63    1
    58    30    64    1
    59    30    65    1
    60    31    32    1
    61    32    33    2
    62    32    66    1
    63    33    34    1
    64    33    67    1
    65    34    35   ar
    66    34    36   ar
    67    35    37   ar
    68    35    68    1
    69    36    38   ar
    70    36    69    1
    71    37    39   ar
    72    37    70    1
    73    38    39   ar
    74    38    71    1
    75    40    72    1
    76    40    73    1
    77    40    74    1
