@<TRIPOS>MOLECULE
IMPHY009665
 18 19 0 0 0
SMALL
GASTEIGER

@<TRIPOS>ATOM
      1 O           4.6660   -1.2927    0.0000 O.2     1  UNL1       -0.4196
      2 O           6.3981    0.7073    0.0000 O.3     1  UNL1       -0.5010
      3 O           6.3981   -1.2927    0.0000 O.2     1  UNL1       -0.2411
      4 C           3.8000    0.2073    0.0000 C.ar    1  UNL1        0.0211
      5 C           3.8000   -0.7927    0.0000 C.ar    1  UNL1        0.1393
      6 C           4.6660    0.7073    0.0000 C.ar    1  UNL1       -0.0023
      7 C           2.9061    0.7420    0.0000 C.ar    1  UNL1       -0.0510
      8 C           2.9061   -1.3273    0.0000 C.ar    1  UNL1       -0.0186
      9 C           5.5321    0.2073    0.0000 C.ar    1  UNL1        0.2029
     10 C           2.0000    0.2281    0.0000 C.ar    1  UNL1       -0.0610
     11 C           2.0000   -0.8135    0.0000 C.ar    1  UNL1       -0.0582
     12 C           5.5321   -0.7927    0.0000 C.ar    1  UNL1        0.3793
     13 H           4.6660    1.3273    0.0000 H       1  UNL1        0.0663
     14 H           2.9132    1.3620    0.0000 H       1  UNL1        0.0625
     15 H           2.9132   -1.9473    0.0000 H       1  UNL1        0.0654
     16 H           1.4643    0.5402    0.0000 H       1  UNL1        0.0618
     17 H           1.4643   -1.1256    0.0000 H       1  UNL1        0.0619
     18 H           6.3981    1.3273    0.0000 H       1  UNL1        0.2924
@<TRIPOS>BOND
     1     1     5   ar
     2     1    12   ar
     3     2     9    1
     4     2    18    1
     5     3    12    2
     6     4     5   ar
     7     4     6   ar
     8     4     7   ar
     9     5     8   ar
    10     6     9   ar
    11     6    13    1
    12     7    10   ar
    13     7    14    1
    14     8    11   ar
    15     8    15    1
    16     9    12   ar
    17    10    11   ar
    18    10    16    1
    19    11    17    1
