@<TRIPOS>MOLECULE
IMPHY011920
 44 48 0 0 0
SMALL
GASTEIGER

@<TRIPOS>ATOM
      1 O           5.7516   -2.3147    0.0000 O.3     1  UNL1       -0.4641
      2 O           7.4728   -2.7759    0.0000 O.2     1  UNL1       -0.2505
      3 O           3.1961    2.7759    0.0000 O.3     1  UNL1       -0.4526
      4 O          11.2446   -0.8075    0.0000 O.3     1  UNL1       -0.4526
      5 O           2.0000    1.6990    0.0000 O.3     1  UNL1       -0.4526
      6 O          11.2446   -2.4170    0.0000 O.3     1  UNL1       -0.4526
      7 C           5.9207   -0.7055    0.0000 C.3     1  UNL1        0.0105
      8 C           6.8342   -1.1122    0.0000 C.3     1  UNL1        0.0666
      9 C           5.2516   -1.4487    0.0000 C.3     1  UNL1        0.0963
     10 C           5.7128    0.2726    0.0000 C.3     1  UNL1       -0.0209
     11 C           7.7003   -0.6122    0.0000 C.3     1  UNL1       -0.0143
     12 C           6.7297   -2.1068    0.0000 C.2     1  UNL1        0.3109
     13 C           4.7617    0.5817    0.0000 C.ar    1  UNL1       -0.0433
     14 C           8.5663   -1.1122    0.0000 C.ar    1  UNL1       -0.0429
     15 C           4.5538    1.5598    0.0000 C.ar    1  UNL1       -0.0130
     16 C           4.0186   -0.0875    0.0000 C.ar    1  UNL1       -0.0549
     17 C           9.4323   -0.6122    0.0000 C.ar    1  UNL1       -0.0129
     18 C           8.5663   -2.1122    0.0000 C.ar    1  UNL1       -0.0549
     19 C           3.6028    1.8688    0.0000 C.ar    1  UNL1        0.1665
     20 C          10.2983   -1.1122    0.0000 C.ar    1  UNL1        0.1665
     21 C           3.0675    0.2215    0.0000 C.ar    1  UNL1       -0.0159
     22 C           2.8596    1.1997    0.0000 C.ar    1  UNL1        0.1662
     23 C           9.4323   -2.6122    0.0000 C.ar    1  UNL1       -0.0159
     24 C          10.2983   -2.1122    0.0000 C.ar    1  UNL1        0.1662
     25 C           2.2075    2.6711    0.0000 C.3     1  UNL1        0.2332
     26 C          11.8282   -1.6122    0.0000 C.3     1  UNL1        0.2332
     27 H           6.4025   -0.3153    0.0000 H       1  UNL1        0.0345
     28 H           6.8018   -0.4931    0.0000 H       1  UNL1        0.0420
     29 H           4.8367   -0.9879    0.0000 H       1  UNL1        0.0700
     30 H           4.7500   -1.8131    0.0000 H       1  UNL1        0.0700
     31 H           6.3324    0.2943    0.0000 H       1  UNL1        0.0317
     32 H           5.7991    0.8866    0.0000 H       1  UNL1        0.0317
     33 H           8.0988   -0.1373    0.0000 H       1  UNL1        0.0321
     34 H           7.3017   -0.1373    0.0000 H       1  UNL1        0.0321
     35 H           5.0146    1.9747    0.0000 H       1  UNL1        0.0658
     36 H           4.1475   -0.6939    0.0000 H       1  UNL1        0.0621
     37 H           9.4323    0.0078    0.0000 H       1  UNL1        0.0658
     38 H           8.0294   -2.4222    0.0000 H       1  UNL1        0.0621
     39 H           2.6068   -0.1933    0.0000 H       1  UNL1        0.0655
     40 H           9.4323   -3.2322    0.0000 H       1  UNL1        0.0655
     41 H           2.2073    3.2911    0.0000 H       1  UNL1        0.1166
     42 H           1.5909    2.7361    0.0000 H       1  UNL1        0.1166
     43 H          12.2890   -2.0270    0.0000 H       1  UNL1        0.1166
     44 H          12.2890   -1.1975    0.0000 H       1  UNL1        0.1166
@<TRIPOS>BOND
     1     1     9    1
     2     1    12    1
     3     2    12    2
     4     3    19    1
     5     3    25    1
     6     4    20    1
     7     4    26    1
     8     5    22    1
     9     5    25    1
    10     6    24    1
    11     6    26    1
    12     7     8    1
    13     7     9    1
    14     7    10    1
    15     7    27    1
    16     8    11    1
    17     8    12    1
    18     8    28    1
    19     9    29    1
    20     9    30    1
    21    10    13    1
    22    10    31    1
    23    10    32    1
    24    11    14    1
    25    11    33    1
    26    11    34    1
    27    13    15   ar
    28    13    16   ar
    29    14    17   ar
    30    14    18   ar
    31    15    19   ar
    32    15    35    1
    33    16    21   ar
    34    16    36    1
    35    17    20   ar
    36    17    37    1
    37    18    23   ar
    38    18    38    1
    39    19    22   ar
    40    20    24   ar
    41    21    22   ar
    42    21    39    1
    43    23    24   ar
    44    23    40    1
    45    25    41    1
    46    25    42    1
    47    26    43    1
    48    26    44    1
