@<TRIPOS>MOLECULE
IMPHY009472
 22 22 0 0 0
SMALL
GASTEIGER

@<TRIPOS>ATOM
      1 O           2.5369    1.0000    0.0000 O.3     1  UNL1       -0.5065
      2 C           5.1350    0.5000    0.0000 C.ar    1  UNL1       -0.0438
      3 C           4.2690    1.0000    0.0000 C.ar    1  UNL1       -0.0061
      4 C           4.2690   -1.0000    0.0000 C.ar    1  UNL1       -0.0467
      5 C           5.1350   -0.5000    0.0000 C.ar    1  UNL1       -0.0554
      6 C           3.4030    0.5000    0.0000 C.ar    1  UNL1        0.1202
      7 C           3.4030   -0.5000    0.0000 C.ar    1  UNL1       -0.0170
      8 C           6.0010    1.0000    0.0000 C.3     1  UNL1       -0.0393
      9 C           4.2690    2.0000    0.0000 C.3     1  UNL1       -0.0360
     10 C           4.2690   -2.0000    0.0000 C.3     1  UNL1       -0.0396
     11 H           5.6720   -0.8100    0.0000 H       1  UNL1        0.0623
     12 H           2.8660   -0.8100    0.0000 H       1  UNL1        0.0657
     13 H           6.3110    0.4631    0.0000 H       1  UNL1        0.0278
     14 H           6.5380    1.3100    0.0000 H       1  UNL1        0.0278
     15 H           5.6910    1.5369    0.0000 H       1  UNL1        0.0278
     16 H           4.8890    2.0000    0.0000 H       1  UNL1        0.0279
     17 H           4.2690    2.6200    0.0000 H       1  UNL1        0.0279
     18 H           3.6490    2.0000    0.0000 H       1  UNL1        0.0279
     19 H           3.6490   -2.0000    0.0000 H       1  UNL1        0.0278
     20 H           4.2690   -2.6200    0.0000 H       1  UNL1        0.0278
     21 H           4.8890   -2.0000    0.0000 H       1  UNL1        0.0278
     22 H           2.0000    0.6900    0.0000 H       1  UNL1        0.2921
@<TRIPOS>BOND
     1     1     6    1
     2     1    22    1
     3     2     3   ar
     4     2     5   ar
     5     2     8    1
     6     3     6   ar
     7     3     9    1
     8     4     5   ar
     9     4     7   ar
    10     4    10    1
    11     5    11    1
    12     6     7   ar
    13     7    12    1
    14     8    13    1
    15     8    14    1
    16     8    15    1
    17     9    16    1
    18     9    17    1
    19     9    18    1
    20    10    19    1
    21    10    20    1
    22    10    21    1
