@<TRIPOS>MOLECULE
IMPHY007154
 29 28 0 0 0
SMALL
GASTEIGER

@<TRIPOS>ATOM
      1 O           6.3301    0.2500    0.0000 O.3     1  UNL1       -0.4644
      2 O           5.4641   -1.2500    0.0000 O.2     1  UNL1       -0.2509
      3 C           8.0622    0.2500    0.0000 C.3     1  UNL1       -0.0123
      4 C           7.1962   -0.2500    0.0000 C.3     1  UNL1        0.0948
      5 C           3.7320   -0.2500    0.0000 C.3     1  UNL1       -0.0432
      6 C           4.5981    0.2500    0.0000 C.3     1  UNL1        0.0449
      7 C           2.8660    0.2500    0.0000 C.3     1  UNL1       -0.0554
      8 C           8.9282   -0.2500    0.0000 C.3     1  UNL1       -0.0596
      9 C           8.0622    1.2500    0.0000 C.3     1  UNL1       -0.0596
     10 C           5.4641   -0.2500    0.0000 C.2     1  UNL1        0.3071
     11 C           2.0000   -0.2500    0.0000 C.3     1  UNL1       -0.0653
     12 H           8.0622   -0.3700    0.0000 H       1  UNL1        0.0328
     13 H           6.7976   -0.7249    0.0000 H       1  UNL1        0.0700
     14 H           7.5947   -0.7249    0.0000 H       1  UNL1        0.0700
     15 H           3.3335   -0.7249    0.0000 H       1  UNL1        0.0270
     16 H           4.1306   -0.7249    0.0000 H       1  UNL1        0.0270
     17 H           4.9966    0.7249    0.0000 H       1  UNL1        0.0377
     18 H           4.1996    0.7249    0.0000 H       1  UNL1        0.0377
     19 H           3.2646    0.7249    0.0000 H       1  UNL1        0.0263
     20 H           2.4675    0.7249    0.0000 H       1  UNL1        0.0263
     21 H           8.6182   -0.7869    0.0000 H       1  UNL1        0.0233
     22 H           9.4651   -0.5600    0.0000 H       1  UNL1        0.0233
     23 H           9.2382    0.2869    0.0000 H       1  UNL1        0.0233
     24 H           8.6822    1.2500    0.0000 H       1  UNL1        0.0233
     25 H           8.0622    1.8700    0.0000 H       1  UNL1        0.0233
     26 H           7.4422    1.2500    0.0000 H       1  UNL1        0.0233
     27 H           1.6900    0.2869    0.0000 H       1  UNL1        0.0230
     28 H           1.4631   -0.5600    0.0000 H       1  UNL1        0.0230
     29 H           2.3100   -0.7869    0.0000 H       1  UNL1        0.0230
@<TRIPOS>BOND
     1     1     4    1
     2     1    10    1
     3     2    10    2
     4     3     4    1
     5     3     8    1
     6     3     9    1
     7     3    12    1
     8     4    13    1
     9     4    14    1
    10     5     6    1
    11     5     7    1
    12     5    15    1
    13     5    16    1
    14     6    10    1
    15     6    17    1
    16     6    18    1
    17     7    11    1
    18     7    19    1
    19     7    20    1
    20     8    21    1
    21     8    22    1
    22     8    23    1
    23     9    24    1
    24     9    25    1
    25     9    26    1
    26    11    27    1
    27    11    28    1
    28    11    29    1
