@<TRIPOS>MOLECULE
IMPHY009294
 31 33 0 0 0
SMALL
GASTEIGER

@<TRIPOS>ATOM
      1 O           7.3424    0.8047    0.0000 O.2     1  UNL1       -0.4577
      2 O           3.7702    1.0347    0.0000 O.2     1  UNL1       -0.4220
      3 O           2.0000    1.0241    0.0000 O.2     1  UNL1       -0.2452
      4 N           9.9260    0.0000    0.0000 N.3     1  UNL1       -0.3190
      5 C           8.9260    0.0000    0.0000 C.3     1  UNL1        0.0695
      6 C           7.9260    0.0000    0.0000 C.ar    1  UNL1        0.1255
      7 C           6.3961   -0.5000    0.0000 C.ar    1  UNL1        0.0213
      8 C           7.3424   -0.8047    0.0000 C.ar    1  UNL1       -0.0111
      9 C           6.3961    0.5000    0.0000 C.ar    1  UNL1        0.1388
     10 C           8.9260   -1.0000    0.0000 C.3     1  UNL1       -0.0401
     11 C           8.9260    1.0000    0.0000 C.3     1  UNL1       -0.0401
     12 C           5.5301   -1.0000    0.0000 C.ar    1  UNL1       -0.0403
     13 C           4.6641   -0.5000    0.0000 C.ar    1  UNL1        0.0184
     14 C           5.5301    1.0000    0.0000 C.ar    1  UNL1        0.0243
     15 C           4.6641    0.5000    0.0000 C.ar    1  UNL1        0.1426
     16 C           3.7702   -1.0347    0.0000 C.ar    1  UNL1       -0.0443
     17 C           2.8641   -0.5208    0.0000 C.ar    1  UNL1        0.0236
     18 C           2.8641    0.5208    0.0000 C.ar    1  UNL1        0.3372
     19 H           7.5350   -1.3940    0.0000 H       1  UNL1        0.0659
     20 H           8.3060   -1.0000    0.0000 H       1  UNL1        0.0252
     21 H           8.9260   -1.6200    0.0000 H       1  UNL1        0.0252
     22 H           9.5460   -1.0000    0.0000 H       1  UNL1        0.0252
     23 H           9.5460    1.0000    0.0000 H       1  UNL1        0.0252
     24 H           8.9260    1.6200    0.0000 H       1  UNL1        0.0252
     25 H           8.3060    1.0000    0.0000 H       1  UNL1        0.0252
     26 H           5.5301   -1.6200    0.0000 H       1  UNL1        0.0632
     27 H          10.2360   -0.5369    0.0000 H       1  UNL1        0.1191
     28 H          10.2360    0.5369    0.0000 H       1  UNL1        0.1191
     29 H           5.5301    1.6200    0.0000 H       1  UNL1        0.0692
     30 H           3.7773   -1.6546    0.0000 H       1  UNL1        0.0627
     31 H           2.3284   -0.8329    0.0000 H       1  UNL1        0.0689
@<TRIPOS>BOND
     1     1     6   ar
     2     1     9   ar
     3     2    15   ar
     4     2    18   ar
     5     3    18    2
     6     4     5    1
     7     4    27    1
     8     4    28    1
     9     5     6    1
    10     5    10    1
    11     5    11    1
    12     6     8   ar
    13     7     8   ar
    14     7     9   ar
    15     7    12   ar
    16     8    19    1
    17     9    14   ar
    18    10    20    1
    19    10    21    1
    20    10    22    1
    21    11    23    1
    22    11    24    1
    23    11    25    1
    24    12    13   ar
    25    12    26    1
    26    13    15   ar
    27    13    16   ar
    28    14    15   ar
    29    14    29    1
    30    16    17   ar
    31    16    30    1
    32    17    18   ar
    33    17    31    1
