@<TRIPOS>MOLECULE
IMPHY010912
 54 59 0 0 0
SMALL
GASTEIGER

@<TRIPOS>ATOM
      1 O           6.1604    1.9212    0.0000 O.3     1  UNL1       -0.4830
      2 O           5.1350   -2.8179    0.0000 O.3     1  UNL1       -0.3313
      3 O           8.6230    0.2446    0.0000 O.3     1  UNL1       -0.4907
      4 O           6.8671   -2.8179    0.0000 O.3     1  UNL1       -0.4607
      5 O           5.1350   -5.8179    0.0000 O.3     1  UNL1       -0.3864
      6 O           3.4030   -4.8179    0.0000 O.3     1  UNL1       -0.3865
      7 O           6.8671   -4.8179    0.0000 O.3     1  UNL1       -0.3829
      8 O           8.1893    5.4375    0.0000 O.3     1  UNL1       -0.4526
      9 O           6.5324    5.6167    0.0000 O.3     1  UNL1       -0.4525
     10 O           2.5369   -3.3179    0.0000 O.3     1  UNL1       -0.3924
     11 C           7.7628    1.7480    0.0000 C.3     1  UNL1        0.0631
     12 C           6.8948    1.2513    0.0000 C.3     1  UNL1        0.1385
     13 C           7.5573    2.7206    0.0000 C.ar    1  UNL1        0.0082
     14 C           5.1350   -4.8179    0.0000 C.3     1  UNL1        0.1152
     15 C           8.6269    1.2446    0.0000 C.3     1  UNL1        0.1002
     16 C           4.2690   -4.3179    0.0000 C.3     1  UNL1        0.1120
     17 C           6.8910    0.2513    0.0000 C.ar    1  UNL1        0.0352
     18 C           6.0010   -4.3179    0.0000 C.3     1  UNL1        0.1454
     19 C           4.2690   -3.3179    0.0000 C.3     1  UNL1        0.1140
     20 C           6.0010   -3.3179    0.0000 C.3     1  UNL1        0.2308
     21 C           6.5690    2.8274    0.0000 C.ar    1  UNL1        0.1288
     22 C           7.7551   -0.2520    0.0000 C.ar    1  UNL1        0.1307
     23 C           8.1813    3.5469    0.0000 C.ar    1  UNL1       -0.0090
     24 C           5.9790   -0.2520    0.0000 C.ar    1  UNL1       -0.0481
     25 C           3.4030   -2.8179    0.0000 C.3     1  UNL1        0.0731
     26 C           6.8671   -1.8179    0.0000 C.ar    1  UNL1        0.1275
     27 C           7.7671   -1.2936    0.0000 C.ar    1  UNL1        0.0223
     28 C           6.1361    3.7681    0.0000 C.ar    1  UNL1        0.0259
     29 C           7.7703    4.4973    0.0000 C.ar    1  UNL1        0.1667
     30 C           5.9670   -1.2936    0.0000 C.ar    1  UNL1       -0.0192
     31 C           6.7408    4.6086    0.0000 C.ar    1  UNL1        0.1697
     32 C           7.4258    6.1279    0.0000 C.3     1  UNL1        0.2332
     33 H           8.4517    2.2458    0.0000 H       1  UNL1        0.0423
     34 H           6.1166    0.9096    0.0000 H       1  UNL1        0.0793
     35 H           5.6720   -5.1279    0.0000 H       1  UNL1        0.0648
     36 H           4.2690   -4.9379    0.0000 H       1  UNL1        0.0647
     37 H           9.2370    1.1346    0.0000 H       1  UNL1        0.0704
     38 H           8.8412    1.8264    0.0000 H       1  UNL1        0.0704
     39 H           6.5380   -4.0079    0.0000 H       1  UNL1        0.0683
     40 H           4.2690   -2.6979    0.0000 H       1  UNL1        0.0647
     41 H           6.0010   -2.6979    0.0000 H       1  UNL1        0.1084
     42 H           8.7969    3.4732    0.0000 H       1  UNL1        0.0659
     43 H           5.4470    0.0662    0.0000 H       1  UNL1        0.0624
     44 H           3.8015   -2.3429    0.0000 H       1  UNL1        0.0584
     45 H           3.0044   -2.3429    0.0000 H       1  UNL1        0.0584
     46 H           8.3064   -1.5994    0.0000 H       1  UNL1        0.0691
     47 H           5.5190    3.8276    0.0000 H       1  UNL1        0.0692
     48 H           5.4277   -1.5994    0.0000 H       1  UNL1        0.0654
     49 H           4.5981   -6.1279    0.0000 H       1  UNL1        0.2100
     50 H           3.4030   -5.4379    0.0000 H       1  UNL1        0.2100
     51 H           6.8671   -5.4379    0.0000 H       1  UNL1        0.2102
     52 H           7.8877    6.5415    0.0000 H       1  UNL1        0.1166
     53 H           7.0630    6.6307    0.0000 H       1  UNL1        0.1166
     54 H           2.0000   -3.0079    0.0000 H       1  UNL1        0.2095
@<TRIPOS>BOND
     1     1    12    1
     2     1    21    1
     3     2    19    1
     4     2    20    1
     5     3    15    1
     6     3    22    1
     7    20     4    1
     8     4    26    1
     9    14     5    1
    10     5    49    1
    11    16     6    1
    12     6    50    1
    13    18     7    1
    14     7    51    1
    15     8    29    1
    16     8    32    1
    17     9    31    1
    18     9    32    1
    19    10    25    1
    20    10    54    1
    21    11    12    1
    22    11    13    1
    23    11    15    1
    24    11    33    1
    25    12    17    1
    26    12    34    1
    27    13    21   ar
    28    13    23   ar
    29    14    16    1
    30    14    18    1
    31    14    35    1
    32    15    37    1
    33    15    38    1
    34    16    19    1
    35    16    36    1
    36    17    22   ar
    37    17    24   ar
    38    18    20    1
    39    18    39    1
    40    19    25    1
    41    19    40    1
    42    20    41    1
    43    21    28   ar
    44    22    27   ar
    45    23    29   ar
    46    23    42    1
    47    24    30   ar
    48    24    43    1
    49    25    44    1
    50    25    45    1
    51    26    27   ar
    52    26    30   ar
    53    27    46    1
    54    28    31   ar
    55    28    47    1
    56    29    31   ar
    57    30    48    1
    58    32    52    1
    59    32    53    1
