@<TRIPOS>MOLECULE
IMPHY008208
 92 98 0 0 0
SMALL
GASTEIGER

@<TRIPOS>ATOM
      1 O          10.4158   -1.9895    0.0000 O.3     1  UNL1       -0.4609
      2 O          13.9862   -0.0226    0.0000 O.3     1  UNL1       -0.4610
      3 O           6.0075    2.6039    0.0000 O.3     1  UNL1       -0.3449
      4 O          15.4366   -1.0928    0.0000 O.2     1  UNL1       -0.2508
      5 O           4.2755    2.6106    0.0000 O.3     1  UNL1       -0.3461
      6 O           8.6837   -1.9828    0.0000 O.2     1  UNL1       -0.2512
      7 O           5.9998    0.6039    0.0000 O.3     1  UNL1       -0.3841
      8 O           4.2639   -0.3894    0.0000 O.3     1  UNL1       -0.3864
      9 O           2.5357    0.6173    0.0000 O.3     1  UNL1       -0.3869
     10 C           9.5376    0.5797    0.0000 C.3     1  UNL1       -0.0161
     11 C           8.6716    1.0798    0.0000 C.3     1  UNL1       -0.0192
     12 C           8.6714    0.0793    0.0000 C.3     1  UNL1       -0.0400
     13 C          10.4037    1.0798    0.0000 C.3     1  UNL1       -0.0286
     14 C           8.6716    2.0798    0.0000 C.3     1  UNL1       -0.0273
     15 C          11.3137    0.5729    0.0000 C.3     1  UNL1       -0.0162
     16 C           9.5216   -0.4618    0.0000 C.3     1  UNL1       -0.0087
     17 C          11.3217   -0.4687    0.0000 C.3     1  UNL1        0.0172
     18 C           7.7777    0.5451    0.0000 C.3     1  UNL1       -0.0442
     19 C          10.4037    2.0798    0.0000 C.3     1  UNL1       -0.0489
     20 C          10.4196   -0.9895    0.0000 C.3     1  UNL1        0.1098
     21 C           9.5376    2.5798    0.0000 C.3     1  UNL1       -0.0488
     22 C           7.7777    2.6144    0.0000 C.3     1  UNL1       -0.0052
     23 C          12.3097   -0.7785    0.0000 C.3     1  UNL1        0.0085
     24 C          12.2968    0.8979    0.0000 C.3     1  UNL1       -0.0091
     25 C          12.9112    0.0644    0.0000 C.3     1  UNL1        0.1073
     26 C           6.8716    1.0589    0.0000 C.3     1  UNL1       -0.0255
     27 C           6.8716    2.1006    0.0000 C.3     1  UNL1        0.0672
     28 C          11.3060    1.5729    0.0000 C.3     1  UNL1       -0.0585
     29 C          11.3294   -1.4687    0.0000 C.3     1  UNL1       -0.0553
     30 C          12.7417   -1.7668    0.0000 C.3     1  UNL1       -0.0270
     31 C           7.2877    3.4862    0.0000 C.3     1  UNL1       -0.0572
     32 C           8.2877    3.4746    0.0000 C.3     1  UNL1       -0.0572
     33 C          13.8144   -1.8786    0.0000 C.3     1  UNL1        0.0479
     34 C          12.1515   -2.5741    0.0000 C.3     1  UNL1       -0.0615
     35 C          14.4409   -1.0006    0.0000 C.2     1  UNL1        0.3076
     36 C           9.5478   -2.4862    0.0000 C.2     1  UNL1        0.3042
     37 C           5.1396    2.1072    0.0000 C.3     1  UNL1        0.1878
     38 C           5.1357    1.1072    0.0000 C.3     1  UNL1        0.1341
     39 C           9.5440   -3.4862    0.0000 C.3     1  UNL1        0.0332
     40 C           4.2678    0.6106    0.0000 C.3     1  UNL1        0.1137
     41 C           3.4075    2.1139    0.0000 C.3     1  UNL1        0.0792
     42 C           3.4037    1.1139    0.0000 C.3     1  UNL1        0.1069
     43 H           8.0608   -0.0283    0.0000 H       1  UNL1        0.0276
     44 H           8.8835   -0.5033    0.0000 H       1  UNL1        0.0276
     45 H          11.1365    1.5104    0.0000 H       1  UNL1        0.0312
     46 H           8.6782    2.9297    0.0000 H       1  UNL1        0.0312
     47 H           8.9124   -0.3463    0.0000 H       1  UNL1        0.0307
     48 H           9.3036   -1.0422    0.0000 H       1  UNL1        0.0307
     49 H           7.3840    0.0661    0.0000 H       1  UNL1        0.0272
     50 H           8.1823    0.0753    0.0000 H       1  UNL1        0.0272
     51 H          11.0143    1.9721    0.0000 H       1  UNL1        0.0268
     52 H          10.6157    2.6624    0.0000 H       1  UNL1        0.0268
     53 H           9.8809   -1.2964    0.0000 H       1  UNL1        0.0740
     54 H           9.9362    3.0547    0.0000 H       1  UNL1        0.0268
     55 H           9.1391    3.0547    0.0000 H       1  UNL1        0.0268
     56 H          11.7421   -1.4112    0.0000 H       1  UNL1        0.0346
     57 H          12.8318    1.2113    0.0000 H       1  UNL1        0.0306
     58 H          12.0414    1.4629    0.0000 H       1  UNL1        0.0306
     59 H          13.3248    0.8070    0.0000 H       1  UNL1        0.0737
     60 H           6.2608    1.1650    0.0000 H       1  UNL1        0.0290
     61 H           6.6626    0.4752    0.0000 H       1  UNL1        0.0290
     62 H           6.3341    1.7916    0.0000 H       1  UNL1        0.0602
     63 H          11.9259    1.5776    0.0000 H       1  UNL1        0.0235
     64 H          11.3012    2.1928    0.0000 H       1  UNL1        0.0235
     65 H          10.6860    1.5681    0.0000 H       1  UNL1        0.0235
     66 H          10.7094   -1.4734    0.0000 H       1  UNL1        0.0236
     67 H          11.3342   -2.0886    0.0000 H       1  UNL1        0.0236
     68 H          11.9494   -1.4639    0.0000 H       1  UNL1        0.0236
     69 H          12.9932   -2.3335    0.0000 H       1  UNL1        0.0307
     70 H           7.8282    3.7899    0.0000 H       1  UNL1        0.0236
     71 H           6.9840    4.0266    0.0000 H       1  UNL1        0.0236
     72 H           6.7472    3.1824    0.0000 H       1  UNL1        0.0236
     73 H           8.8210    3.1584    0.0000 H       1  UNL1        0.0236
     74 H           8.6038    4.0079    0.0000 H       1  UNL1        0.0236
     75 H           7.7544    3.7908    0.0000 H       1  UNL1        0.0236
     76 H          13.6456   -2.4752    0.0000 H       1  UNL1        0.0380
     77 H          14.3733   -2.1471    0.0000 H       1  UNL1        0.0380
     78 H          11.6510   -2.2081    0.0000 H       1  UNL1        0.0233
     79 H          11.7855   -3.0746    0.0000 H       1  UNL1        0.0233
     80 H          12.6520   -2.9400    0.0000 H       1  UNL1        0.0233
     81 H           5.6753    1.7952    0.0000 H       1  UNL1        0.0937
     82 H           5.1333    0.4873    0.0000 H       1  UNL1        0.0671
     83 H           8.9240   -3.4838    0.0000 H       1  UNL1        0.0342
     84 H           9.5416   -4.1062    0.0000 H       1  UNL1        0.0342
     85 H          10.1640   -3.4886    0.0000 H       1  UNL1        0.0342
     86 H           3.7296    0.3027    0.0000 H       1  UNL1        0.0647
     87 H           3.1977    2.6973    0.0000 H       1  UNL1        0.0587
     88 H           2.7966    2.0086    0.0000 H       1  UNL1        0.0587
     89 H           2.8680    1.4260    0.0000 H       1  UNL1        0.0643
     90 H           5.9974   -0.0161    0.0000 H       1  UNL1        0.2101
     91 H           3.7258   -0.6973    0.0000 H       1  UNL1        0.2100
     92 H           2.0000    0.9293    0.0000 H       1  UNL1        0.2100
@<TRIPOS>BOND
     1    20     1    1
     2     1    36    1
     3     2    25    1
     4     2    35    1
     5    27     3    1
     6    37     3    1
     7     4    35    2
     8     5    37    1
     9     5    41    1
    10     6    36    2
    11    38     7    1
    12     7    90    1
    13    40     8    1
    14     8    91    1
    15    42     9    1
    16     9    92    1
    17    10    11    1
    18    10    12    1
    19    10    13    1
    20    10    16    1
    21    11    12    1
    22    11    14    1
    23    11    18    1
    24    12    43    1
    25    12    44    1
    26    13    15    1
    27    13    19    1
    28    13    45    1
    29    14    21    1
    30    14    22    1
    31    14    46    1
    32    15    17    1
    33    15    24    1
    34    15    28    1
    35    16    20    1
    36    16    47    1
    37    16    48    1
    38    17    20    1
    39    17    23    1
    40    17    29    1
    41    18    26    1
    42    18    49    1
    43    18    50    1
    44    19    21    1
    45    19    51    1
    46    19    52    1
    47    20    53    1
    48    21    54    1
    49    21    55    1
    50    22    27    1
    51    22    31    1
    52    22    32    1
    53    23    25    1
    54    23    30    1
    55    23    56    1
    56    24    25    1
    57    24    57    1
    58    24    58    1
    59    25    59    1
    60    26    27    1
    61    26    60    1
    62    26    61    1
    63    27    62    1
    64    28    63    1
    65    28    64    1
    66    28    65    1
    67    29    66    1
    68    29    67    1
    69    29    68    1
    70    30    33    1
    71    30    34    1
    72    30    69    1
    73    31    70    1
    74    31    71    1
    75    31    72    1
    76    32    73    1
    77    32    74    1
    78    32    75    1
    79    33    35    1
    80    33    76    1
    81    33    77    1
    82    34    78    1
    83    34    79    1
    84    34    80    1
    85    36    39    1
    86    37    38    1
    87    37    81    1
    88    38    40    1
    89    38    82    1
    90    39    83    1
    91    39    84    1
    92    39    85    1
    93    40    42    1
    94    40    86    1
    95    41    42    1
    96    41    87    1
    97    41    88    1
    98    42    89    1
