@<TRIPOS>MOLECULE
IMPHY015602
 51 50 0 0 0
SMALL
GASTEIGER

@<TRIPOS>ATOM
      1 S          13.2583    0.2500    0.0000 S.O     1  UNL1        0.3058
      2 O          12.3923    0.7500    0.0000 O.3     1  UNL1       -0.2679
      3 O          14.1244    0.7500    0.0000 O.3     1  UNL1       -0.2651
      4 O          13.2583   -0.7500    0.0000 O.2     1  UNL1       -0.1962
      5 C           7.1962    0.7500    0.0000 C.3     1  UNL1       -0.0531
      6 C           6.3301    0.2500    0.0000 C.3     1  UNL1       -0.0531
      7 C           8.0622    0.2500    0.0000 C.3     1  UNL1       -0.0531
      8 C           5.4641    0.7500    0.0000 C.3     1  UNL1       -0.0531
      9 C           8.9282    0.7500    0.0000 C.3     1  UNL1       -0.0530
     10 C           4.5981    0.2500    0.0000 C.3     1  UNL1       -0.0531
     11 C           9.7942    0.2500    0.0000 C.3     1  UNL1       -0.0509
     12 C           3.7320    0.7500    0.0000 C.3     1  UNL1       -0.0533
     13 C          10.6603    0.7500    0.0000 C.3     1  UNL1       -0.0281
     14 C           2.8660    0.2500    0.0000 C.3     1  UNL1       -0.0559
     15 C          11.5263    0.2500    0.0000 C.3     1  UNL1        0.0667
     16 C           2.0000    0.7500    0.0000 C.3     1  UNL1       -0.0653
     17 C          14.9904    0.2500    0.0000 C.3     1  UNL1        0.0721
     18 C          15.8564    0.7500    0.0000 C.3     1  UNL1       -0.0376
     19 C          14.9904   -0.7500    0.0000 C.3     1  UNL1       -0.0376
     20 H           7.5947    1.2250    0.0000 H       1  UNL1        0.0265
     21 H           6.7976    1.2250    0.0000 H       1  UNL1        0.0265
     22 H           5.9316   -0.2249    0.0000 H       1  UNL1        0.0265
     23 H           6.7287   -0.2249    0.0000 H       1  UNL1        0.0265
     24 H           7.6636   -0.2249    0.0000 H       1  UNL1        0.0265
     25 H           8.4607   -0.2249    0.0000 H       1  UNL1        0.0265
     26 H           5.8626    1.2250    0.0000 H       1  UNL1        0.0265
     27 H           5.0656    1.2250    0.0000 H       1  UNL1        0.0265
     28 H           9.3267    1.2250    0.0000 H       1  UNL1        0.0265
     29 H           8.5297    1.2250    0.0000 H       1  UNL1        0.0265
     30 H           4.1996   -0.2249    0.0000 H       1  UNL1        0.0265
     31 H           4.9966   -0.2249    0.0000 H       1  UNL1        0.0265
     32 H           9.3957   -0.2249    0.0000 H       1  UNL1        0.0266
     33 H          10.1928   -0.2249    0.0000 H       1  UNL1        0.0266
     34 H           4.1306    1.2250    0.0000 H       1  UNL1        0.0265
     35 H           3.3335    1.2250    0.0000 H       1  UNL1        0.0265
     36 H          11.0588    1.2250    0.0000 H       1  UNL1        0.0288
     37 H          10.2617    1.2250    0.0000 H       1  UNL1        0.0288
     38 H           2.4675   -0.2249    0.0000 H       1  UNL1        0.0263
     39 H           3.2646   -0.2249    0.0000 H       1  UNL1        0.0263
     40 H          11.1278   -0.2249    0.0000 H       1  UNL1        0.0574
     41 H          11.9248   -0.2249    0.0000 H       1  UNL1        0.0574
     42 H           2.3100    1.2869    0.0000 H       1  UNL1        0.0230
     43 H           1.4631    1.0600    0.0000 H       1  UNL1        0.0230
     44 H           1.6900    0.2131    0.0000 H       1  UNL1        0.0230
     45 H          14.9904    0.8700    0.0000 H       1  UNL1        0.0604
     46 H          16.1664    0.2131    0.0000 H       1  UNL1        0.0255
     47 H          16.3933    1.0600    0.0000 H       1  UNL1        0.0255
     48 H          15.5464    1.2869    0.0000 H       1  UNL1        0.0255
     49 H          14.3704   -0.7500    0.0000 H       1  UNL1        0.0255
     50 H          14.9904   -1.3700    0.0000 H       1  UNL1        0.0255
     51 H          15.6104   -0.7500    0.0000 H       1  UNL1        0.0255
@<TRIPOS>BOND
     1     1     2    1
     2     1     3    1
     3     1     4    2
     4     2    15    1
     5     3    17    1
     6     5     6    1
     7     5     7    1
     8     5    20    1
     9     5    21    1
    10     6     8    1
    11     6    22    1
    12     6    23    1
    13     7     9    1
    14     7    24    1
    15     7    25    1
    16     8    10    1
    17     8    26    1
    18     8    27    1
    19     9    11    1
    20     9    28    1
    21     9    29    1
    22    10    12    1
    23    10    30    1
    24    10    31    1
    25    11    13    1
    26    11    32    1
    27    11    33    1
    28    12    14    1
    29    12    34    1
    30    12    35    1
    31    13    15    1
    32    13    36    1
    33    13    37    1
    34    14    16    1
    35    14    38    1
    36    14    39    1
    37    15    40    1
    38    15    41    1
    39    16    42    1
    40    16    43    1
    41    16    44    1
    42    17    18    1
    43    17    19    1
    44    17    45    1
    45    18    46    1
    46    18    47    1
    47    18    48    1
    48    19    49    1
    49    19    50    1
    50    19    51    1
