@<TRIPOS>MOLECULE
IMPHY009507
 88 88 0 0 0
SMALL
GASTEIGER

@<TRIPOS>ATOM
      1 O           5.4641   -5.2500    0.0000 O.3     1  UNL1       -0.3918
      2 C           2.8660   -7.7500    0.0000 C.3     1  UNL1       -0.0410
      3 C           2.0000   -8.2500    0.0000 C.3     1  UNL1       -0.0502
      4 C           3.7320   -8.2500    0.0000 C.3     1  UNL1       -0.0502
      5 C           2.8660   -6.7500    0.0000 C.3     1  UNL1       -0.0501
      6 C           2.0000   -9.2500    0.0000 C.3     1  UNL1       -0.0528
      7 C           3.7320   -9.2500    0.0000 C.3     1  UNL1       -0.0528
      8 C           2.8660   -9.7500    0.0000 C.3     1  UNL1       -0.0530
      9 C           3.7320   -6.2500    0.0000 C.3     1  UNL1       -0.0505
     10 C           3.7320   -5.2500    0.0000 C.3     1  UNL1       -0.0268
     11 C           4.5981   -4.7500    0.0000 C.3     1  UNL1        0.0553
     12 C           4.5981   -3.7500    0.0000 C.3     1  UNL1       -0.0269
     13 C           5.4641   -3.2500    0.0000 C.3     1  UNL1       -0.0507
     14 C           5.4641   -2.2500    0.0000 C.3     1  UNL1       -0.0530
     15 C           6.3301   -1.7500    0.0000 C.3     1  UNL1       -0.0531
     16 C           6.3301   -0.7500    0.0000 C.3     1  UNL1       -0.0531
     17 C           7.1962   -0.2500    0.0000 C.3     1  UNL1       -0.0531
     18 C           7.1962    0.7500    0.0000 C.3     1  UNL1       -0.0531
     19 C           8.0622    1.2500    0.0000 C.3     1  UNL1       -0.0531
     20 C           8.0622    2.2500    0.0000 C.3     1  UNL1       -0.0531
     21 C           8.9282    2.7500    0.0000 C.3     1  UNL1       -0.0531
     22 C           8.9282    3.7500    0.0000 C.3     1  UNL1       -0.0531
     23 C           9.7942    4.2500    0.0000 C.3     1  UNL1       -0.0531
     24 C           9.7942    5.2500    0.0000 C.3     1  UNL1       -0.0531
     25 C          10.6603    5.7500    0.0000 C.3     1  UNL1       -0.0531
     26 C          10.6603    6.7500    0.0000 C.3     1  UNL1       -0.0531
     27 C          11.5263    7.2500    0.0000 C.3     1  UNL1       -0.0531
     28 C          11.5263    8.2500    0.0000 C.3     1  UNL1       -0.0533
     29 C          12.3923    8.7500    0.0000 C.3     1  UNL1       -0.0559
     30 C          12.3923    9.7500    0.0000 C.3     1  UNL1       -0.0653
     31 H           3.4030   -7.4400    0.0000 H       1  UNL1        0.0301
     32 H           1.7880   -7.6674    0.0000 H       1  UNL1        0.0268
     33 H           1.3894   -8.3577    0.0000 H       1  UNL1        0.0268
     34 H           4.3426   -8.3577    0.0000 H       1  UNL1        0.0268
     35 H           3.9441   -7.6674    0.0000 H       1  UNL1        0.0268
     36 H           2.6540   -6.1674    0.0000 H       1  UNL1        0.0268
     37 H           2.2554   -6.8577    0.0000 H       1  UNL1        0.0268
     38 H           1.3894   -9.1423    0.0000 H       1  UNL1        0.0265
     39 H           1.7880   -9.8326    0.0000 H       1  UNL1        0.0265
     40 H           3.9441   -9.8326    0.0000 H       1  UNL1        0.0265
     41 H           4.3426   -9.1423    0.0000 H       1  UNL1        0.0265
     42 H           2.4675  -10.2249    0.0000 H       1  UNL1        0.0265
     43 H           3.2646  -10.2249    0.0000 H       1  UNL1        0.0265
     44 H           3.9441   -6.8326    0.0000 H       1  UNL1        0.0266
     45 H           4.3426   -6.1423    0.0000 H       1  UNL1        0.0266
     46 H           3.5200   -4.6674    0.0000 H       1  UNL1        0.0290
     47 H           3.1215   -5.3577    0.0000 H       1  UNL1        0.0290
     48 H           4.5981   -5.3700    0.0000 H       1  UNL1        0.0593
     49 H           4.3860   -3.1674    0.0000 H       1  UNL1        0.0290
     50 H           3.9875   -3.8577    0.0000 H       1  UNL1        0.0290
     51 H           5.6762   -3.8326    0.0000 H       1  UNL1        0.0266
     52 H           6.0747   -3.1423    0.0000 H       1  UNL1        0.0266
     53 H           5.2520   -1.6674    0.0000 H       1  UNL1        0.0265
     54 H           4.8535   -2.3577    0.0000 H       1  UNL1        0.0265
     55 H           6.5422   -2.3326    0.0000 H       1  UNL1        0.0265
     56 H           6.9407   -1.6423    0.0000 H       1  UNL1        0.0265
     57 H           6.1181   -0.1674    0.0000 H       1  UNL1        0.0265
     58 H           5.7196   -0.8577    0.0000 H       1  UNL1        0.0265
     59 H           7.4082   -0.8326    0.0000 H       1  UNL1        0.0265
     60 H           7.8067   -0.1423    0.0000 H       1  UNL1        0.0265
     61 H           6.0010   -4.9400    0.0000 H       1  UNL1        0.2098
     62 H           6.9841    1.3326    0.0000 H       1  UNL1        0.0265
     63 H           6.5856    0.6423    0.0000 H       1  UNL1        0.0265
     64 H           8.2742    0.6674    0.0000 H       1  UNL1        0.0265
     65 H           8.6728    1.3577    0.0000 H       1  UNL1        0.0265
     66 H           7.8501    2.8326    0.0000 H       1  UNL1        0.0265
     67 H           7.4516    2.1423    0.0000 H       1  UNL1        0.0265
     68 H           9.1403    2.1674    0.0000 H       1  UNL1        0.0265
     69 H           9.5388    2.8577    0.0000 H       1  UNL1        0.0265
     70 H           8.7162    4.3326    0.0000 H       1  UNL1        0.0265
     71 H           8.3176    3.6423    0.0000 H       1  UNL1        0.0265
     72 H          10.0063    3.6674    0.0000 H       1  UNL1        0.0265
     73 H          10.4048    4.3577    0.0000 H       1  UNL1        0.0265
     74 H           9.5822    5.8326    0.0000 H       1  UNL1        0.0265
     75 H           9.1836    5.1423    0.0000 H       1  UNL1        0.0265
     76 H          10.8723    5.1674    0.0000 H       1  UNL1        0.0265
     77 H          11.2708    5.8577    0.0000 H       1  UNL1        0.0265
     78 H          10.4482    7.3326    0.0000 H       1  UNL1        0.0265
     79 H          10.0497    6.6423    0.0000 H       1  UNL1        0.0265
     80 H          11.7383    6.6674    0.0000 H       1  UNL1        0.0265
     81 H          12.1369    7.3577    0.0000 H       1  UNL1        0.0265
     82 H          11.3142    8.8326    0.0000 H       1  UNL1        0.0265
     83 H          10.9157    8.1423    0.0000 H       1  UNL1        0.0265
     84 H          12.6044    8.1674    0.0000 H       1  UNL1        0.0263
     85 H          13.0029    8.8577    0.0000 H       1  UNL1        0.0263
     86 H          13.0123    9.7500    0.0000 H       1  UNL1        0.0230
     87 H          12.3923   10.3700    0.0000 H       1  UNL1        0.0230
     88 H          11.7723    9.7500    0.0000 H       1  UNL1        0.0230
@<TRIPOS>BOND
     1     1    11    1
     2     1    61    1
     3     2     3    1
     4     2     4    1
     5     2     5    1
     6     2    31    1
     7     3     6    1
     8     3    32    1
     9     3    33    1
    10     4     7    1
    11     4    34    1
    12     4    35    1
    13     5     9    1
    14     5    36    1
    15     5    37    1
    16     6     8    1
    17     6    38    1
    18     6    39    1
    19     7     8    1
    20     7    40    1
    21     7    41    1
    22     8    42    1
    23     8    43    1
    24     9    10    1
    25     9    44    1
    26     9    45    1
    27    10    11    1
    28    10    46    1
    29    10    47    1
    30    11    12    1
    31    11    48    1
    32    12    13    1
    33    12    49    1
    34    12    50    1
    35    13    14    1
    36    13    51    1
    37    13    52    1
    38    14    15    1
    39    14    53    1
    40    14    54    1
    41    15    16    1
    42    15    55    1
    43    15    56    1
    44    16    17    1
    45    16    57    1
    46    16    58    1
    47    17    18    1
    48    17    59    1
    49    17    60    1
    50    18    19    1
    51    18    62    1
    52    18    63    1
    53    19    20    1
    54    19    64    1
    55    19    65    1
    56    20    21    1
    57    20    66    1
    58    20    67    1
    59    21    22    1
    60    21    68    1
    61    21    69    1
    62    22    23    1
    63    22    70    1
    64    22    71    1
    65    23    24    1
    66    23    72    1
    67    23    73    1
    68    24    25    1
    69    24    74    1
    70    24    75    1
    71    25    26    1
    72    25    76    1
    73    25    77    1
    74    26    27    1
    75    26    78    1
    76    26    79    1
    77    27    28    1
    78    27    80    1
    79    27    81    1
    80    28    29    1
    81    28    82    1
    82    28    83    1
    83    29    30    1
    84    29    84    1
    85    29    85    1
    86    30    86    1
    87    30    87    1
    88    30    88    1
