@<TRIPOS>MOLECULE
IMPHY013067
 51 53 0 0 0
SMALL
GASTEIGER

@<TRIPOS>ATOM
      1 O           9.4893   -0.2961    0.0000 O.3     1  UNL1       -0.3883
      2 O           6.8671   -0.9050    0.0000 O.3     1  UNL1       -0.3095
      3 O           6.0010    0.5950    0.0000 O.2     1  UNL1       -0.4701
      4 O           8.9900    2.8502    0.0000 O.3     1  UNL1       -0.3911
      5 O           5.1350   -0.9050    0.0000 O.3     1  UNL1       -0.3404
      6 O           6.8671   -2.9050    0.0000 O.3     1  UNL1       -0.3841
      7 O           5.1350   -3.9050    0.0000 O.3     1  UNL1       -0.3864
      8 O           3.4030   -2.9050    0.0000 O.3     1  UNL1       -0.3865
      9 O           6.0010    3.5950    0.0000 O.3     1  UNL1       -0.4773
     10 O           7.7331    3.5950    0.0000 O.2     1  UNL1       -0.2454
     11 O           2.5369   -1.4050    0.0000 O.3     1  UNL1       -0.3924
     12 C           7.7331    0.5950    0.0000 C.3     1  UNL1        0.0596
     13 C           8.6793    0.2903    0.0000 C.3     1  UNL1        0.0748
     14 C           7.7331    1.5950    0.0000 C.3     1  UNL1        0.0310
     15 C           8.6793    1.8997    0.0000 C.3     1  UNL1        0.0655
     16 C           9.2629    1.0950    0.0000 C.3     1  UNL1        0.0029
     17 C           6.8671    0.0950    0.0000 C.3     1  UNL1        0.2095
     18 C           6.8671    2.0950    0.0000 C.2     1  UNL1        0.0766
     19 C           8.3719   -0.6613    0.0000 C.3     1  UNL1       -0.0355
     20 C           6.0010   -1.4050    0.0000 C.3     1  UNL1        0.1918
     21 C           6.0010    1.5950    0.0000 C.2     1  UNL1        0.0982
     22 C           6.0010   -2.4050    0.0000 C.3     1  UNL1        0.1342
     23 C           5.1350   -2.9050    0.0000 C.3     1  UNL1        0.1141
     24 C           4.2690   -2.4050    0.0000 C.3     1  UNL1        0.1119
     25 C           4.2690   -1.4050    0.0000 C.3     1  UNL1        0.1130
     26 C           6.8671    3.0950    0.0000 C.2     1  UNL1        0.3361
     27 C           3.4030   -0.9050    0.0000 C.3     1  UNL1        0.0730
     28 H           7.8230   -0.2502    0.0000 H       1  UNL1        0.0396
     29 H           7.8230    2.4402    0.0000 H       1  UNL1        0.0383
     30 H           8.2418    2.3391    0.0000 H       1  UNL1        0.0600
     31 H           9.7238    0.6803    0.0000 H       1  UNL1        0.0318
     32 H           9.7238    1.5097    0.0000 H       1  UNL1        0.0318
     33 H           7.4040   -0.2150    0.0000 H       1  UNL1        0.1060
     34 H           7.7820   -0.4708    0.0000 H       1  UNL1        0.0257
     35 H           8.1814   -1.2513    0.0000 H       1  UNL1        0.0257
     36 H           8.9619   -0.8519    0.0000 H       1  UNL1        0.0257
     37 H          10.0553   -0.0430    0.0000 H       1  UNL1        0.2102
     38 H           6.0010   -0.7850    0.0000 H       1  UNL1        0.0939
     39 H           5.4641    1.9050    0.0000 H       1  UNL1        0.1029
     40 H           9.5966    2.9781    0.0000 H       1  UNL1        0.2098
     41 H           6.0010   -3.0250    0.0000 H       1  UNL1        0.0671
     42 H           4.5981   -3.2150    0.0000 H       1  UNL1        0.0648
     43 H           4.2690   -3.0250    0.0000 H       1  UNL1        0.0647
     44 H           4.2690   -0.7850    0.0000 H       1  UNL1        0.0647
     45 H           3.8015   -0.4301    0.0000 H       1  UNL1        0.0584
     46 H           3.0044   -0.4301    0.0000 H       1  UNL1        0.0584
     47 H           6.8671   -3.5250    0.0000 H       1  UNL1        0.2101
     48 H           4.5981   -4.2150    0.0000 H       1  UNL1        0.2100
     49 H           3.4030   -3.5250    0.0000 H       1  UNL1        0.2100
     50 H           6.0010    4.2150    0.0000 H       1  UNL1        0.2954
     51 H           2.0000   -1.0950    0.0000 H       1  UNL1        0.2095
@<TRIPOS>BOND
     1    13     1    1
     2     1    37    1
     3    17     2    1
     4    20     2    1
     5     3    17    1
     6     3    21    1
     7    15     4    1
     8     4    40    1
     9     5    20    1
    10     5    25    1
    11    22     6    1
    12     6    47    1
    13    23     7    1
    14     7    48    1
    15    24     8    1
    16     8    49    1
    17     9    26    1
    18     9    50    1
    19    10    26    2
    20    11    27    1
    21    11    51    1
    22    12    13    1
    23    12    14    1
    24    12    17    1
    25    12    28    1
    26    13    16    1
    27    13    19    1
    28    14    15    1
    29    14    18    1
    30    14    29    1
    31    15    16    1
    32    15    30    1
    33    16    31    1
    34    16    32    1
    35    17    33    1
    36    18    21    2
    37    18    26    1
    38    19    34    1
    39    19    35    1
    40    19    36    1
    41    20    22    1
    42    20    38    1
    43    21    39    1
    44    22    23    1
    45    22    41    1
    46    23    24    1
    47    23    42    1
    48    24    25    1
    49    24    43    1
    50    25    27    1
    51    25    44    1
    52    27    45    1
    53    27    46    1
