@<TRIPOS>MOLECULE
IMPHY013522
 78 82 0 0 0
SMALL
GASTEIGER

@<TRIPOS>ATOM
      1 O           3.8467   -3.2392    0.0000 O.3     1  UNL1       -0.3819
      2 O           2.5519   -0.2338    0.0000 O.3     1  UNL1       -0.3891
      3 O           2.5357   -2.3254    0.0000 O.3     1  UNL1       -0.3861
      4 O          11.4608    0.7611    0.0000 O.3     1  UNL1       -0.4802
      5 O          10.6064   -0.7456    0.0000 O.2     1  UNL1       -0.2504
      6 C           7.0628   -0.7731    0.0000 C.3     1  UNL1       -0.0157
      7 C           7.9288   -0.2731    0.0000 C.3     1  UNL1       -0.0048
      8 C           6.1968   -0.2731    0.0000 C.3     1  UNL1       -0.0219
      9 C           5.2868   -0.7799    0.0000 C.3     1  UNL1       -0.0023
     10 C           8.8228    1.2616    0.0000 C.3     1  UNL1       -0.0031
     11 C           7.9288    0.7269    0.0000 C.2     1  UNL1       -0.0629
     12 C           9.7288    0.7477    0.0000 C.3     1  UNL1        0.0741
     13 C           8.8228   -0.8078    0.0000 C.3     1  UNL1       -0.0424
     14 C           7.0789   -1.8146    0.0000 C.3     1  UNL1       -0.0279
     15 C           6.1968    0.7269    0.0000 C.3     1  UNL1       -0.0303
     16 C           9.7288   -0.2939    0.0000 C.3     1  UNL1       -0.0359
     17 C           5.2787   -1.8215    0.0000 C.2     1  UNL1       -0.0338
     18 C           8.7977    2.3463    0.0000 C.3     1  UNL1       -0.0403
     19 C           7.0628    1.2269    0.0000 C.2     1  UNL1       -0.0836
     20 C           7.7056   -1.5391    0.0000 C.3     1  UNL1       -0.0582
     21 C           4.3599   -0.2159    0.0000 C.3     1  UNL1       -0.0148
     22 C           8.2709   -1.2128    0.0000 C.3     1  UNL1       -0.0553
     23 C          10.6726    1.2830    0.0000 C.3     1  UNL1       -0.0362
     24 C           9.7288    2.9032    0.0000 C.3     1  UNL1       -0.0343
     25 C           6.1808   -2.3424    0.0000 C.2     1  UNL1       -0.0809
     26 C           4.3433   -2.3713    0.0000 C.3     1  UNL1        0.1129
     27 C          10.6726    2.3680    0.0000 C.3     1  UNL1       -0.0468
     28 C           5.2945    0.2200    0.0000 C.3     1  UNL1       -0.0554
     29 C           3.4120   -0.7438    0.0000 C.3     1  UNL1        0.0849
     30 C           3.4037   -1.8288    0.0000 C.3     1  UNL1        0.1132
     31 C          10.5987    0.2544    0.0000 C.2     1  UNL1        0.3115
     32 C          10.2188    3.7749    0.0000 C.3     1  UNL1       -0.0598
     33 C           9.2188    3.7634    0.0000 C.3     1  UNL1       -0.0598
     34 C           4.8466   -3.2354    0.0000 C.3     1  UNL1       -0.0296
     35 H           6.9329    0.1519    0.0000 H       1  UNL1        0.0318
     36 H           9.5522    1.6979    0.0000 H       1  UNL1        0.0357
     37 H           8.4182   -1.2775    0.0000 H       1  UNL1        0.0274
     38 H           9.2164   -1.2868    0.0000 H       1  UNL1        0.0274
     39 H           7.2969   -2.3950    0.0000 H       1  UNL1        0.0313
     40 H           7.6880   -1.6991    0.0000 H       1  UNL1        0.0313
     41 H           5.9847    1.3095    0.0000 H       1  UNL1        0.0311
     42 H           5.5862    0.6192    0.0000 H       1  UNL1        0.0311
     43 H           9.9379   -0.8776    0.0000 H       1  UNL1        0.0276
     44 H          10.3397   -0.1878    0.0000 H       1  UNL1        0.0276
     45 H           8.5752    2.9250    0.0000 H       1  UNL1        0.0276
     46 H           8.1894    2.2261    0.0000 H       1  UNL1        0.0276
     47 H           7.0628    1.8469    0.0000 H       1  UNL1        0.0572
     48 H           7.2306   -1.9377    0.0000 H       1  UNL1        0.0236
     49 H           8.1041   -2.0141    0.0000 H       1  UNL1        0.0236
     50 H           8.1805   -1.1406    0.0000 H       1  UNL1        0.0236
     51 H           4.7681    0.2508    0.0000 H       1  UNL1        0.0299
     52 H           3.9700    0.2662    0.0000 H       1  UNL1        0.0299
     53 H           7.6884   -1.4249    0.0000 H       1  UNL1        0.0238
     54 H           8.4830   -1.7953    0.0000 H       1  UNL1        0.0238
     55 H           8.8535   -1.0006    0.0000 H       1  UNL1        0.0238
     56 H          10.8817    0.6993    0.0000 H       1  UNL1        0.0276
     57 H          11.2835    1.3891    0.0000 H       1  UNL1        0.0276
     58 H           6.1832   -2.9623    0.0000 H       1  UNL1        0.0573
     59 H          11.2835    2.2619    0.0000 H       1  UNL1        0.0271
     60 H          10.8817    2.9516    0.0000 H       1  UNL1        0.0271
     61 H           5.9145    0.2153    0.0000 H       1  UNL1        0.0238
     62 H           5.2993    0.8400    0.0000 H       1  UNL1        0.0238
     63 H           4.6745    0.2248    0.0000 H       1  UNL1        0.0238
     64 H           2.8722   -1.0486    0.0000 H       1  UNL1        0.0620
     65 H           3.4025   -2.4488    0.0000 H       1  UNL1        0.0651
     66 H          10.7593    3.4712    0.0000 H       1  UNL1        0.0235
     67 H          10.5226    4.3154    0.0000 H       1  UNL1        0.0235
     68 H           9.6783    4.0787    0.0000 H       1  UNL1        0.0235
     69 H           9.7522    4.0796    0.0000 H       1  UNL1        0.0235
     70 H           8.9027    4.2967    0.0000 H       1  UNL1        0.0235
     71 H           8.6855    3.4472    0.0000 H       1  UNL1        0.0235
     72 H           4.3109   -3.5474    0.0000 H       1  UNL1        0.0261
     73 H           5.1587   -3.7711    0.0000 H       1  UNL1        0.0261
     74 H           5.3824   -2.9233    0.0000 H       1  UNL1        0.0261
     75 H           4.1587   -3.7749    0.0000 H       1  UNL1        0.2107
     76 H           2.5590    0.3861    0.0000 H       1  UNL1        0.2099
     77 H           2.0000   -2.0134    0.0000 H       1  UNL1        0.2100
     78 H          12.0001    0.4552    0.0000 H       1  UNL1        0.2951
@<TRIPOS>BOND
     1    26     1    1
     2     1    75    1
     3    29     2    1
     4     2    76    1
     5    30     3    1
     6     3    77    1
     7     4    31    1
     8     4    78    1
     9     5    31    2
    10     6     7    1
    11     6     8    1
    12     6    14    1
    13     6    20    1
    14     7    11    1
    15     7    13    1
    16     7    22    1
    17     8     9    1
    18     8    15    1
    19     8    35    1
    20     9    17    1
    21     9    21    1
    22     9    28    1
    23    10    11    1
    24    10    12    1
    25    10    18    1
    26    10    36    1
    27    11    19    2
    28    12    16    1
    29    12    23    1
    30    12    31    1
    31    13    16    1
    32    13    37    1
    33    13    38    1
    34    14    25    1
    35    14    39    1
    36    14    40    1
    37    15    19    1
    38    15    41    1
    39    15    42    1
    40    16    43    1
    41    16    44    1
    42    17    25    2
    43    17    26    1
    44    18    24    1
    45    18    45    1
    46    18    46    1
    47    19    47    1
    48    20    48    1
    49    20    49    1
    50    20    50    1
    51    21    29    1
    52    21    51    1
    53    21    52    1
    54    22    53    1
    55    22    54    1
    56    22    55    1
    57    23    27    1
    58    23    56    1
    59    23    57    1
    60    24    27    1
    61    24    32    1
    62    24    33    1
    63    25    58    1
    64    26    30    1
    65    26    34    1
    66    27    59    1
    67    27    60    1
    68    28    61    1
    69    28    62    1
    70    28    63    1
    71    29    30    1
    72    29    64    1
    73    30    65    1
    74    32    66    1
    75    32    67    1
    76    32    68    1
    77    33    69    1
    78    33    70    1
    79    33    71    1
    80    34    72    1
    81    34    73    1
    82    34    74    1
