@<TRIPOS>MOLECULE
IMPHY002421
 78 82 0 0 0
SMALL
GASTEIGER

@<TRIPOS>ATOM
      1 O           9.7266    0.5086    0.0000 O.3     1  UNL1       -0.3875
      2 O          10.4700    3.9584    0.0000 O.3     1  UNL1       -0.3860
      3 O           9.8420    4.9739    0.0000 O.3     1  UNL1       -0.3922
      4 O           6.0010   -2.2131    0.0000 O.3     1  UNL1       -0.4318
      5 O           5.1350   -0.7131    0.0000 O.2     1  UNL1       -0.2501
      6 O           4.2690   -2.2131    0.0000 O.3     1  UNL1       -0.3312
      7 O           6.0010   -4.2131    0.0000 O.3     1  UNL1       -0.3829
      8 O           4.2690   -5.2131    0.0000 O.3     1  UNL1       -0.3864
      9 O           2.5369   -4.2131    0.0000 O.3     1  UNL1       -0.3865
     10 O           2.5369   -1.2131    0.0000 O.3     1  UNL1       -0.3924
     11 C           8.4547    2.0126    0.0000 C.3     1  UNL1        0.0031
     12 C           8.9581    1.1485    0.0000 C.3     1  UNL1        0.0774
     13 C           8.4547    0.2365    0.0000 C.3     1  UNL1        0.0011
     14 C           7.4132    0.2245    0.0000 C.3     1  UNL1       -0.0175
     15 C           9.6363    1.9985    0.0000 C.3     1  UNL1       -0.0391
     16 C          10.5993    2.6831    0.0000 C.3     1  UNL1       -0.0093
     17 C           8.8165    2.9448    0.0000 C.3     1  UNL1       -0.0133
     18 C           7.4132    2.0246    0.0000 C.3     1  UNL1       -0.0443
     19 C           9.7709    3.2433    0.0000 C.3     1  UNL1        0.0924
     20 C           9.9475    1.0032    0.0000 C.3     1  UNL1       -0.0226
     21 C           6.8889    1.1245    0.0000 C.3     1  UNL1       -0.0480
     22 C          10.6779    1.6862    0.0000 C.3     1  UNL1       -0.0449
     23 C           6.8671   -0.7131    0.0000 C.3     1  UNL1        0.0684
     24 C           9.0224   -0.6881    0.0000 C.3     1  UNL1       -0.0447
     25 C           9.3983   -0.0946    0.0000 C.3     1  UNL1       -0.0566
     26 C           7.4132   -1.6506    0.0000 C.3     1  UNL1       -0.0372
     27 C           8.4981   -1.6380    0.0000 C.3     1  UNL1       -0.0515
     28 C           9.3069    4.1291    0.0000 C.3     1  UNL1        0.0732
     29 C           6.0010   -0.2131    0.0000 C.3     1  UNL1       -0.0491
     30 C           6.0010   -1.2131    0.0000 C.2     1  UNL1        0.3156
     31 C           5.1350   -2.7131    0.0000 C.3     1  UNL1        0.2337
     32 C           5.1350   -3.7131    0.0000 C.3     1  UNL1        0.1455
     33 C           4.2690   -4.2131    0.0000 C.3     1  UNL1        0.1152
     34 C           3.4030   -2.7131    0.0000 C.3     1  UNL1        0.1140
     35 C           3.4030   -3.7131    0.0000 C.3     1  UNL1        0.1120
     36 C           2.5369   -2.2131    0.0000 C.3     1  UNL1        0.0731
     37 H           6.5632    0.2245    0.0000 H       1  UNL1        0.0317
     38 H           9.4380    1.4111    0.0000 H       1  UNL1        0.0275
     39 H          10.1339    1.6287    0.0000 H       1  UNL1        0.0275
     40 H          11.4106    2.9368    0.0000 H       1  UNL1        0.0329
     41 H           8.7678    3.5629    0.0000 H       1  UNL1        0.0300
     42 H           8.2031    3.0349    0.0000 H       1  UNL1        0.0300
     43 H           7.5263    2.6342    0.0000 H       1  UNL1        0.0272
     44 H           6.8319    2.2404    0.0000 H       1  UNL1        0.0272
     45 H           9.7232    0.4252    0.0000 H       1  UNL1        0.0293
     46 H          10.4611    0.6560    0.0000 H       1  UNL1        0.0293
     47 H           6.4145    1.5237    0.0000 H       1  UNL1        0.0269
     48 H           6.4145    0.7254    0.0000 H       1  UNL1        0.0269
     49 H          10.9900    1.1505    0.0000 H       1  UNL1        0.0270
     50 H          11.2696    1.8713    0.0000 H       1  UNL1        0.0270
     51 H           9.5059   -1.0762    0.0000 H       1  UNL1        0.0272
     52 H           9.4875   -0.2781    0.0000 H       1  UNL1        0.0272
     53 H           9.1930   -0.6796    0.0000 H       1  UNL1        0.0236
     54 H           9.9834   -0.2999    0.0000 H       1  UNL1        0.0236
     55 H           9.6036    0.4904    0.0000 H       1  UNL1        0.0236
     56 H           6.8319   -1.8664    0.0000 H       1  UNL1        0.0276
     57 H           7.5263   -2.2602    0.0000 H       1  UNL1        0.0276
     58 H           8.3991   -2.2501    0.0000 H       1  UNL1        0.0266
     59 H           9.0842   -1.8403    0.0000 H       1  UNL1        0.0266
     60 H          10.3376    0.4033    0.0000 H       1  UNL1        0.2102
     61 H           8.8487    4.5468    0.0000 H       1  UNL1        0.0586
     62 H           8.8160    3.7504    0.0000 H       1  UNL1        0.0586
     63 H           6.3110    0.3239    0.0000 H       1  UNL1        0.0240
     64 H           5.4641    0.0969    0.0000 H       1  UNL1        0.0240
     65 H           5.6910   -0.7500    0.0000 H       1  UNL1        0.0240
     66 H          11.0706    3.8047    0.0000 H       1  UNL1        0.2103
     67 H           9.5542    5.5231    0.0000 H       1  UNL1        0.2095
     68 H           5.1350   -2.0931    0.0000 H       1  UNL1        0.1085
     69 H           5.1350   -4.3331    0.0000 H       1  UNL1        0.0683
     70 H           3.7320   -4.5231    0.0000 H       1  UNL1        0.0648
     71 H           3.4030   -2.0931    0.0000 H       1  UNL1        0.0647
     72 H           2.8660   -3.4031    0.0000 H       1  UNL1        0.0647
     73 H           6.5380   -3.9031    0.0000 H       1  UNL1        0.2102
     74 H           1.9264   -2.1054    0.0000 H       1  UNL1        0.0584
     75 H           2.3249   -2.7957    0.0000 H       1  UNL1        0.0584
     76 H           3.7320   -5.5231    0.0000 H       1  UNL1        0.2100
     77 H           2.0000   -3.9031    0.0000 H       1  UNL1        0.2100
     78 H           2.0000   -0.9031    0.0000 H       1  UNL1        0.2095
@<TRIPOS>BOND
     1    12     1    1
     2     1    60    1
     3    19     2    1
     4     2    66    1
     5     3    28    1
     6     3    67    1
     7     4    30    1
     8    31     4    1
     9     5    30    2
    10     6    31    1
    11     6    34    1
    12    32     7    1
    13     7    73    1
    14    33     8    1
    15     8    76    1
    16    35     9    1
    17     9    77    1
    18    10    36    1
    19    10    78    1
    20    11    12    1
    21    11    15    1
    22    11    17    1
    23    11    18    1
    24    12    13    1
    25    12    20    1
    26    13    14    1
    27    13    24    1
    28    13    25    1
    29    14    21    1
    30    14    23    1
    31    14    37    1
    32    15    16    1
    33    15    38    1
    34    15    39    1
    35    16    19    1
    36    16    22    1
    37    16    40    1
    38    17    19    1
    39    17    41    1
    40    17    42    1
    41    18    21    1
    42    18    43    1
    43    18    44    1
    44    19    28    1
    45    20    22    1
    46    20    45    1
    47    20    46    1
    48    21    47    1
    49    21    48    1
    50    22    49    1
    51    22    50    1
    52    23    26    1
    53    23    29    1
    54    23    30    1
    55    24    27    1
    56    24    51    1
    57    24    52    1
    58    25    53    1
    59    25    54    1
    60    25    55    1
    61    26    27    1
    62    26    56    1
    63    26    57    1
    64    27    58    1
    65    27    59    1
    66    28    61    1
    67    28    62    1
    68    29    63    1
    69    29    64    1
    70    29    65    1
    71    31    32    1
    72    31    68    1
    73    32    33    1
    74    32    69    1
    75    33    35    1
    76    33    70    1
    77    34    35    1
    78    34    36    1
    79    34    71    1
    80    35    72    1
    81    36    74    1
    82    36    75    1
