@<TRIPOS>MOLECULE
IMPHY016771
 26 27 0 0 0
SMALL
GASTEIGER

@<TRIPOS>ATOM
      1 O           2.5369    2.0000    0.0000 O.2     1  UNL1       -0.2786
      2 N           3.4030    0.5000    0.0000 N.am    1  UNL1       -0.2429
      3 C           3.4030   -0.5000    0.0000 C.ar    1  UNL1        0.0410
      4 C           4.2690    1.0000    0.0000 C.ar    1  UNL1        0.0410
      5 C           2.5369   -1.0000    0.0000 C.ar    1  UNL1       -0.0399
      6 C           5.1350    0.5000    0.0000 C.ar    1  UNL1       -0.0399
      7 C           4.2690   -1.0000    0.0000 C.ar    1  UNL1       -0.0399
      8 C           4.2690    2.0000    0.0000 C.ar    1  UNL1       -0.0399
      9 C           2.5369   -2.0000    0.0000 C.ar    1  UNL1       -0.0600
     10 C           6.0010    1.0000    0.0000 C.ar    1  UNL1       -0.0600
     11 C           4.2690   -2.0000    0.0000 C.ar    1  UNL1       -0.0600
     12 C           5.1350    2.5000    0.0000 C.ar    1  UNL1       -0.0600
     13 C           3.4030   -2.5000    0.0000 C.ar    1  UNL1       -0.0616
     14 C           6.0010    2.0000    0.0000 C.ar    1  UNL1       -0.0616
     15 C           2.5369    1.0000    0.0000 C.2     1  UNL1        0.2111
     16 H           2.0000   -0.6900    0.0000 H       1  UNL1        0.0636
     17 H           5.1350   -0.1200    0.0000 H       1  UNL1        0.0636
     18 H           4.8059   -0.6900    0.0000 H       1  UNL1        0.0636
     19 H           3.7320    2.3100    0.0000 H       1  UNL1        0.0636
     20 H           2.0000   -2.3100    0.0000 H       1  UNL1        0.0618
     21 H           6.5380    0.6900    0.0000 H       1  UNL1        0.0618
     22 H           4.8059   -2.3100    0.0000 H       1  UNL1        0.0618
     23 H           5.1350    3.1200    0.0000 H       1  UNL1        0.0618
     24 H           3.4030   -3.1200    0.0000 H       1  UNL1        0.0618
     25 H           6.5380    2.3100    0.0000 H       1  UNL1        0.0618
     26 H           2.0000    0.6900    0.0000 H       1  UNL1        0.1260
@<TRIPOS>BOND
     1     1    15    2
     2     2     3    1
     3     2     4    1
     4     2    15   am
     5     3     5   ar
     6     3     7   ar
     7     4     6   ar
     8     4     8   ar
     9     5     9   ar
    10     5    16    1
    11     6    10   ar
    12     6    17    1
    13     7    11   ar
    14     7    18    1
    15     8    12   ar
    16     8    19    1
    17     9    13   ar
    18     9    20    1
    19    10    14   ar
    20    10    21    1
    21    11    13   ar
    22    11    22    1
    23    12    14   ar
    24    12    23    1
    25    13    24    1
    26    14    25    1
    27    15    26    1
