@<TRIPOS>MOLECULE
IMPHY012802
 66 67 0 0 0
SMALL
GASTEIGER

@<TRIPOS>ATOM
      1 O           4.6660    2.0000    0.0000 O.2     1  UNL1       -0.2872
      2 N           4.6660   -1.0000    0.0000 N.ar    1  UNL1       -0.3466
      3 C          11.5942   -1.0000    0.0000 C.3     1  UNL1       -0.0531
      4 C          10.7282   -0.5000    0.0000 C.3     1  UNL1       -0.0531
      5 C          12.4603   -0.5000    0.0000 C.3     1  UNL1       -0.0531
      6 C           9.8622   -1.0000    0.0000 C.3     1  UNL1       -0.0531
      7 C          13.3263   -1.0000    0.0000 C.3     1  UNL1       -0.0531
      8 C           8.9962   -0.5000    0.0000 C.3     1  UNL1       -0.0530
      9 C          14.1923   -0.5000    0.0000 C.3     1  UNL1       -0.0531
     10 C           8.1301   -1.0000    0.0000 C.3     1  UNL1       -0.0527
     11 C          15.0583   -1.0000    0.0000 C.3     1  UNL1       -0.0531
     12 C           7.2641   -0.5000    0.0000 C.3     1  UNL1       -0.0477
     13 C          15.9244   -0.5000    0.0000 C.3     1  UNL1       -0.0531
     14 C           6.3981   -1.0000    0.0000 C.3     1  UNL1       -0.0122
     15 C          16.7904   -1.0000    0.0000 C.3     1  UNL1       -0.0533
     16 C           5.5321   -0.5000    0.0000 C.ar    1  UNL1        0.0225
     17 C          17.6564   -0.5000    0.0000 C.3     1  UNL1       -0.0559
     18 C           3.8000   -0.5000    0.0000 C.ar    1  UNL1        0.0527
     19 C           5.5321    0.5000    0.0000 C.ar    1  UNL1        0.0051
     20 C           3.8000    0.5000    0.0000 C.ar    1  UNL1        0.0452
     21 C           4.6660    1.0000    0.0000 C.ar    1  UNL1        0.1897
     22 C           4.6660   -2.0000    0.0000 C.3     1  UNL1        0.0121
     23 C          18.5224   -1.0000    0.0000 C.3     1  UNL1       -0.0653
     24 C           2.9061   -1.0347    0.0000 C.ar    1  UNL1       -0.0375
     25 C           2.9061    1.0347    0.0000 C.ar    1  UNL1       -0.0490
     26 C           2.0000   -0.5208    0.0000 C.ar    1  UNL1       -0.0598
     27 C           2.0000    0.5208    0.0000 C.ar    1  UNL1       -0.0610
     28 H          11.1957   -1.4750    0.0000 H       1  UNL1        0.0265
     29 H          11.9928   -1.4750    0.0000 H       1  UNL1        0.0265
     30 H          11.1267   -0.0251    0.0000 H       1  UNL1        0.0265
     31 H          10.3297   -0.0251    0.0000 H       1  UNL1        0.0265
     32 H          12.8588   -0.0251    0.0000 H       1  UNL1        0.0265
     33 H          12.0617   -0.0251    0.0000 H       1  UNL1        0.0265
     34 H           9.4637   -1.4750    0.0000 H       1  UNL1        0.0265
     35 H          10.2607   -1.4750    0.0000 H       1  UNL1        0.0265
     36 H          12.9278   -1.4750    0.0000 H       1  UNL1        0.0265
     37 H          13.7248   -1.4750    0.0000 H       1  UNL1        0.0265
     38 H           9.3947   -0.0251    0.0000 H       1  UNL1        0.0265
     39 H           8.5976   -0.0251    0.0000 H       1  UNL1        0.0265
     40 H          14.5908   -0.0251    0.0000 H       1  UNL1        0.0265
     41 H          13.7938   -0.0251    0.0000 H       1  UNL1        0.0265
     42 H           7.7316   -1.4750    0.0000 H       1  UNL1        0.0265
     43 H           8.5287   -1.4750    0.0000 H       1  UNL1        0.0265
     44 H          14.6598   -1.4750    0.0000 H       1  UNL1        0.0265
     45 H          15.4569   -1.4750    0.0000 H       1  UNL1        0.0265
     46 H           7.6626   -0.0251    0.0000 H       1  UNL1        0.0269
     47 H           6.8656   -0.0251    0.0000 H       1  UNL1        0.0269
     48 H          16.3229   -0.0251    0.0000 H       1  UNL1        0.0265
     49 H          15.5258   -0.0251    0.0000 H       1  UNL1        0.0265
     50 H           5.9996   -1.4750    0.0000 H       1  UNL1        0.0328
     51 H           6.7966   -1.4750    0.0000 H       1  UNL1        0.0328
     52 H          16.3919   -1.4750    0.0000 H       1  UNL1        0.0265
     53 H          17.1889   -1.4750    0.0000 H       1  UNL1        0.0265
     54 H          18.0549   -0.0251    0.0000 H       1  UNL1        0.0263
     55 H          17.2579   -0.0251    0.0000 H       1  UNL1        0.0263
     56 H           6.0690    0.8100    0.0000 H       1  UNL1        0.0673
     57 H           4.0460   -2.0000    0.0000 H       1  UNL1        0.0456
     58 H           4.6660   -2.6200    0.0000 H       1  UNL1        0.0456
     59 H           5.2860   -2.0000    0.0000 H       1  UNL1        0.0456
     60 H          18.2124   -1.5369    0.0000 H       1  UNL1        0.0230
     61 H          19.0594   -1.3100    0.0000 H       1  UNL1        0.0230
     62 H          18.8324   -0.4631    0.0000 H       1  UNL1        0.0230
     63 H           2.9132   -1.6546    0.0000 H       1  UNL1        0.0638
     64 H           2.9132    1.6546    0.0000 H       1  UNL1        0.0625
     65 H           1.4643   -0.8329    0.0000 H       1  UNL1        0.0618
     66 H           1.4643    0.8329    0.0000 H       1  UNL1        0.0618
@<TRIPOS>BOND
     1     1    21    2
     2     2    16   ar
     3     2    18   ar
     4     2    22    1
     5     3     4    1
     6     3     5    1
     7     3    28    1
     8     3    29    1
     9     4     6    1
    10     4    30    1
    11     4    31    1
    12     5     7    1
    13     5    32    1
    14     5    33    1
    15     6     8    1
    16     6    34    1
    17     6    35    1
    18     7     9    1
    19     7    36    1
    20     7    37    1
    21     8    10    1
    22     8    38    1
    23     8    39    1
    24     9    11    1
    25     9    40    1
    26     9    41    1
    27    10    12    1
    28    10    42    1
    29    10    43    1
    30    11    13    1
    31    11    44    1
    32    11    45    1
    33    12    14    1
    34    12    46    1
    35    12    47    1
    36    13    15    1
    37    13    48    1
    38    13    49    1
    39    14    16    1
    40    14    50    1
    41    14    51    1
    42    15    17    1
    43    15    52    1
    44    15    53    1
    45    16    19   ar
    46    17    23    1
    47    17    54    1
    48    17    55    1
    49    18    20   ar
    50    18    24   ar
    51    19    21   ar
    52    19    56    1
    53    20    21   ar
    54    20    25   ar
    55    22    57    1
    56    22    58    1
    57    22    59    1
    58    23    60    1
    59    23    61    1
    60    23    62    1
    61    24    26   ar
    62    24    63    1
    63    25    27   ar
    64    25    64    1
    65    26    27   ar
    66    26    65    1
    67    27    66    1
