@<TRIPOS>MOLECULE
IMPHY008669
 81 85 0 0 0
SMALL
GASTEIGER

@<TRIPOS>ATOM
      1 O           6.8671   -0.9276    0.0000 O.3     1  UNL1       -0.3366
      2 O           7.7331    1.5724    0.0000 O.3     1  UNL1       -0.3313
      3 O           5.1350   -0.9276    0.0000 O.3     1  UNL1       -0.3405
      4 O           5.1350    0.0725    0.0000 O.3     1  UNL1       -0.3863
      5 O           8.5991    0.0725    0.0000 O.3     1  UNL1       -0.4514
      6 O           5.1350    2.0724    0.0000 O.3     1  UNL1       -0.3865
      7 O           6.8671   -2.9276    0.0000 O.3     1  UNL1       -0.3841
      8 O           5.1350   -3.9276    0.0000 O.3     1  UNL1       -0.3864
      9 O           3.4030   -2.9276    0.0000 O.3     1  UNL1       -0.3865
     10 O           6.0010    3.5724    0.0000 O.3     1  UNL1       -0.3924
     11 O           2.5369   -1.4276    0.0000 O.3     1  UNL1       -0.3924
     12 O          11.1972    0.5724    0.0000 O.2     1  UNL1       -0.1997
     13 O           9.4434    3.6039    0.0000 O.3     1  UNL1       -0.5057
     14 O           8.5991   -2.9276    0.0000 O.3     1  UNL1       -0.4913
     15 O          12.0632   -2.9276    0.0000 O.3     1  UNL1       -0.4913
     16 O          12.9832    3.6176    0.0000 O.3     1  UNL1       -0.5063
     17 O          10.3312   -3.9276    0.0000 O.3     1  UNL1       -0.5009
     18 C           6.8671    0.0725    0.0000 C.3     1  UNL1        0.1519
     19 C           6.0010    0.5724    0.0000 C.3     1  UNL1        0.1155
     20 C           6.0010    1.5724    0.0000 C.3     1  UNL1        0.1120
     21 C           6.0010   -1.4276    0.0000 C.3     1  UNL1        0.1886
     22 C           6.0010   -2.4276    0.0000 C.3     1  UNL1        0.1341
     23 C           7.7331    0.5724    0.0000 C.3     1  UNL1        0.2316
     24 C           6.8671    2.0724    0.0000 C.3     1  UNL1        0.1140
     25 C           5.1350   -2.9276    0.0000 C.3     1  UNL1        0.1141
     26 C           4.2690   -2.4276    0.0000 C.3     1  UNL1        0.1119
     27 C           4.2690   -1.4276    0.0000 C.3     1  UNL1        0.1130
     28 C           6.8671    3.0724    0.0000 C.3     1  UNL1        0.0731
     29 C           3.4030   -0.9276    0.0000 C.3     1  UNL1        0.0730
     30 C           9.4651    0.5724    0.0000 C.ar    1  UNL1        0.2288
     31 C          10.3312    0.0725    0.0000 C.ar    1  UNL1        0.4047
     32 C           9.4651    1.5724    0.0000 C.ar    1  UNL1        0.0093
     33 C          10.3312    2.0724    0.0000 C.ar    1  UNL1        0.1241
     34 C          10.3312   -0.9276    0.0000 C.ar    1  UNL1        0.0899
     35 C          11.1972    1.5724    0.0000 C.ar    1  UNL1        0.3708
     36 C          10.3151    3.1140    0.0000 C.ar    1  UNL1        0.1366
     37 C          12.1072    2.0793    0.0000 C.ar    1  UNL1        0.0847
     38 C          11.1972   -1.4276    0.0000 C.ar    1  UNL1        0.0002
     39 C           9.4651   -1.4276    0.0000 C.ar    1  UNL1        0.0002
     40 C          11.2131    3.6417    0.0000 C.ar    1  UNL1        0.0225
     41 C          12.1152    3.1209    0.0000 C.ar    1  UNL1        0.1293
     42 C           9.4651   -2.4276    0.0000 C.ar    1  UNL1        0.1658
     43 C          11.1972   -2.4276    0.0000 C.ar    1  UNL1        0.1658
     44 C          10.3312   -2.9276    0.0000 C.ar    1  UNL1        0.2011
     45 C           8.5991   -3.9276    0.0000 C.3     1  UNL1        0.0790
     46 C          12.9292   -2.4276    0.0000 C.3     1  UNL1        0.0790
     47 H           7.4040   -0.2376    0.0000 H       1  UNL1        0.0687
     48 H           6.0010   -0.0475    0.0000 H       1  UNL1        0.0648
     49 H           5.4641    1.2624    0.0000 H       1  UNL1        0.0647
     50 H           6.5380   -1.7376    0.0000 H       1  UNL1        0.0938
     51 H           6.0010   -3.0476    0.0000 H       1  UNL1        0.0671
     52 H           8.2700    0.8824    0.0000 H       1  UNL1        0.1084
     53 H           7.4040    2.3824    0.0000 H       1  UNL1        0.0647
     54 H           4.5981   -3.2376    0.0000 H       1  UNL1        0.0648
     55 H           3.7320   -2.1176    0.0000 H       1  UNL1        0.0647
     56 H           4.2690   -0.8076    0.0000 H       1  UNL1        0.0647
     57 H           7.4776    2.9648    0.0000 H       1  UNL1        0.0584
     58 H           7.0791    3.6551    0.0000 H       1  UNL1        0.0584
     59 H           3.8015   -0.4526    0.0000 H       1  UNL1        0.0584
     60 H           3.0044   -0.4526    0.0000 H       1  UNL1        0.0584
     61 H           4.5981    0.3824    0.0000 H       1  UNL1        0.2100
     62 H           5.1350    2.6924    0.0000 H       1  UNL1        0.2100
     63 H           6.8671   -3.5476    0.0000 H       1  UNL1        0.2101
     64 H           4.5981   -4.2376    0.0000 H       1  UNL1        0.2100
     65 H           3.4030   -3.5476    0.0000 H       1  UNL1        0.2100
     66 H           6.0010    4.1924    0.0000 H       1  UNL1        0.2095
     67 H           2.0000   -1.1176    0.0000 H       1  UNL1        0.2095
     68 H           8.9282    1.8824    0.0000 H       1  UNL1        0.0667
     69 H          12.6405    1.7631    0.0000 H       1  UNL1        0.0749
     70 H          11.7341   -1.1176    0.0000 H       1  UNL1        0.0664
     71 H           8.9282   -1.1176    0.0000 H       1  UNL1        0.0664
     72 H          11.2108    4.2617    0.0000 H       1  UNL1        0.0691
     73 H           9.4362    4.2239    0.0000 H       1  UNL1        0.2922
     74 H          12.9856    4.2376    0.0000 H       1  UNL1        0.2921
     75 H          10.8681   -4.2376    0.0000 H       1  UNL1        0.2924
     76 H           7.9791   -3.9276    0.0000 H       1  UNL1        0.0660
     77 H           8.5991   -4.5476    0.0000 H       1  UNL1        0.0660
     78 H           9.2191   -3.9276    0.0000 H       1  UNL1        0.0660
     79 H          13.2392   -2.9645    0.0000 H       1  UNL1        0.0660
     80 H          13.4662   -2.1176    0.0000 H       1  UNL1        0.0660
     81 H          12.6192   -1.8906    0.0000 H       1  UNL1        0.0660
@<TRIPOS>UNITY_ATOM_ATTR
12 1
charge 1
@<TRIPOS>BOND
     1     1    18    1
     2    21     1    1
     3     2    23    1
     4     2    24    1
     5     3    21    1
     6     3    27    1
     7     4    19    1
     8     4    61    1
     9    23     5    1
    10     5    30    1
    11    20     6    1
    12     6    62    1
    13    22     7    1
    14     7    63    1
    15     8    25    1
    16     8    64    1
    17    26     9    1
    18     9    65    1
    19    10    28    1
    20    10    66    1
    21    11    29    1
    22    11    67    1
    23    12    31   ar
    24    12    35   ar
    25    13    36    1
    26    13    73    1
    27    14    42    1
    28    14    45    1
    29    15    43    1
    30    15    46    1
    31    16    41    1
    32    16    74    1
    33    17    44    1
    34    17    75    1
    35    18    19    1
    36    18    23    1
    37    18    47    1
    38    19    20    1
    39    19    48    1
    40    20    24    1
    41    20    49    1
    42    21    22    1
    43    21    50    1
    44    22    25    1
    45    22    51    1
    46    23    52    1
    47    24    28    1
    48    24    53    1
    49    25    26    1
    50    25    54    1
    51    26    27    1
    52    26    55    1
    53    27    29    1
    54    27    56    1
    55    28    57    1
    56    28    58    1
    57    29    59    1
    58    29    60    1
    59    30    31   ar
    60    30    32   ar
    61    31    34    1
    62    32    33   ar
    63    32    68    1
    64    33    35   ar
    65    33    36   ar
    66    34    38   ar
    67    34    39   ar
    68    35    37   ar
    69    36    40   ar
    70    37    41   ar
    71    37    69    1
    72    38    43   ar
    73    38    70    1
    74    39    42   ar
    75    39    71    1
    76    40    41   ar
    77    40    72    1
    78    42    44   ar
    79    43    44   ar
    80    45    76    1
    81    45    77    1
    82    45    78    1
    83    46    79    1
    84    46    80    1
    85    46    81    1
