@<TRIPOS>MOLECULE
IMPHY017361
 51 50 0 0 0
SMALL
GASTEIGER

@<TRIPOS>ATOM
      1 C           9.4651    0.0600    0.0000 C.3     1  UNL1       -0.0531
      2 C          10.3312   -0.4400    0.0000 C.3     1  UNL1       -0.0531
      3 C           8.5991   -0.4400    0.0000 C.3     1  UNL1       -0.0531
      4 C          11.1972    0.0600    0.0000 C.3     1  UNL1       -0.0531
      5 C           7.7331    0.0600    0.0000 C.3     1  UNL1       -0.0531
      6 C          12.0632   -0.4400    0.0000 C.3     1  UNL1       -0.0531
      7 C           6.8671   -0.4400    0.0000 C.3     1  UNL1       -0.0530
      8 C          12.9292    0.0600    0.0000 C.3     1  UNL1       -0.0531
      9 C           6.0010    0.0600    0.0000 C.3     1  UNL1       -0.0528
     10 C          13.7953   -0.4400    0.0000 C.3     1  UNL1       -0.0533
     11 C           5.1350   -0.4400    0.0000 C.3     1  UNL1       -0.0496
     12 C          14.6613    0.0600    0.0000 C.3     1  UNL1       -0.0559
     13 C           4.2690    0.0600    0.0000 C.3     1  UNL1       -0.0348
     14 C          15.5273   -0.4400    0.0000 C.3     1  UNL1       -0.0653
     15 C           3.4030   -0.4400    0.0000 C.2     1  UNL1       -0.0882
     16 C           2.5369    0.0600    0.0000 C.2     1  UNL1       -0.0910
     17 C           2.5369    1.0600    0.0000 C.3     1  UNL1       -0.0468
     18 H           9.8637    0.5349    0.0000 H       1  UNL1        0.0265
     19 H           9.0666    0.5349    0.0000 H       1  UNL1        0.0265
     20 H           9.9326   -0.9149    0.0000 H       1  UNL1        0.0265
     21 H          10.7297   -0.9149    0.0000 H       1  UNL1        0.0265
     22 H           8.2006   -0.9149    0.0000 H       1  UNL1        0.0265
     23 H           8.9976   -0.9149    0.0000 H       1  UNL1        0.0265
     24 H          11.5957    0.5349    0.0000 H       1  UNL1        0.0265
     25 H          10.7987    0.5349    0.0000 H       1  UNL1        0.0265
     26 H           8.1316    0.5349    0.0000 H       1  UNL1        0.0265
     27 H           7.3346    0.5349    0.0000 H       1  UNL1        0.0265
     28 H          11.6647   -0.9149    0.0000 H       1  UNL1        0.0265
     29 H          12.4617   -0.9149    0.0000 H       1  UNL1        0.0265
     30 H           6.4685   -0.9149    0.0000 H       1  UNL1        0.0265
     31 H           7.2656   -0.9149    0.0000 H       1  UNL1        0.0265
     32 H          13.3278    0.5349    0.0000 H       1  UNL1        0.0265
     33 H          12.5307    0.5349    0.0000 H       1  UNL1        0.0265
     34 H           6.3996    0.5349    0.0000 H       1  UNL1        0.0265
     35 H           5.6025    0.5349    0.0000 H       1  UNL1        0.0265
     36 H          13.3967   -0.9149    0.0000 H       1  UNL1        0.0265
     37 H          14.1938   -0.9149    0.0000 H       1  UNL1        0.0265
     38 H           4.7365   -0.9149    0.0000 H       1  UNL1        0.0268
     39 H           5.5335   -0.9149    0.0000 H       1  UNL1        0.0268
     40 H          15.0598    0.5349    0.0000 H       1  UNL1        0.0263
     41 H          14.2628    0.5349    0.0000 H       1  UNL1        0.0263
     42 H           4.6675    0.5349    0.0000 H       1  UNL1        0.0307
     43 H           3.8705    0.5349    0.0000 H       1  UNL1        0.0307
     44 H          15.2173   -0.9769    0.0000 H       1  UNL1        0.0230
     45 H          16.0643   -0.7500    0.0000 H       1  UNL1        0.0230
     46 H          15.8373    0.0969    0.0000 H       1  UNL1        0.0230
     47 H           3.4030   -1.0600    0.0000 H       1  UNL1        0.0569
     48 H           2.0000   -0.2500    0.0000 H       1  UNL1        0.0566
     49 H           3.1569    1.0600    0.0000 H       1  UNL1        0.0272
     50 H           2.5369    1.6800    0.0000 H       1  UNL1        0.0272
     51 H           1.9169    1.0600    0.0000 H       1  UNL1        0.0272
@<TRIPOS>BOND
     1     1     2    1
     2     1     3    1
     3     1    18    1
     4     1    19    1
     5     2     4    1
     6     2    20    1
     7     2    21    1
     8     3     5    1
     9     3    22    1
    10     3    23    1
    11     4     6    1
    12     4    24    1
    13     4    25    1
    14     5     7    1
    15     5    26    1
    16     5    27    1
    17     6     8    1
    18     6    28    1
    19     6    29    1
    20     7     9    1
    21     7    30    1
    22     7    31    1
    23     8    10    1
    24     8    32    1
    25     8    33    1
    26     9    11    1
    27     9    34    1
    28     9    35    1
    29    10    12    1
    30    10    36    1
    31    10    37    1
    32    11    13    1
    33    11    38    1
    34    11    39    1
    35    12    14    1
    36    12    40    1
    37    12    41    1
    38    13    15    1
    39    13    42    1
    40    13    43    1
    41    14    44    1
    42    14    45    1
    43    14    46    1
    44    15    16    2
    45    15    47    1
    46    16    17    1
    47    16    48    1
    48    17    49    1
    49    17    50    1
    50    17    51    1
