@<TRIPOS>MOLECULE
IMPHY002801
 36 36 0 0 0
SMALL
GASTEIGER

@<TRIPOS>ATOM
      1 C           3.7320    1.0000    0.0000 C.ar    1  UNL1       -0.0416
      2 C           3.7320   -1.0000    0.0000 C.ar    1  UNL1       -0.0416
      3 C           3.7320    2.0000    0.0000 C.3     1  UNL1       -0.0213
      4 C           3.7320   -2.0000    0.0000 C.3     1  UNL1       -0.0213
      5 C           2.8660    0.5000    0.0000 C.ar    1  UNL1       -0.0467
      6 C           4.5981   -0.5000    0.0000 C.ar    1  UNL1       -0.0467
      7 C           4.5981    0.5000    0.0000 C.ar    1  UNL1       -0.0549
      8 C           2.8660   -0.5000    0.0000 C.ar    1  UNL1       -0.0549
      9 C           4.5981    2.5000    0.0000 C.3     1  UNL1       -0.0586
     10 C           2.8660    2.5000    0.0000 C.3     1  UNL1       -0.0586
     11 C           2.8660   -2.5000    0.0000 C.3     1  UNL1       -0.0586
     12 C           4.5981   -2.5000    0.0000 C.3     1  UNL1       -0.0586
     13 C           2.0000    1.0000    0.0000 C.3     1  UNL1       -0.0394
     14 C           5.4641   -1.0000    0.0000 C.3     1  UNL1       -0.0394
     15 H           3.7320    2.6200    0.0000 H       1  UNL1        0.0344
     16 H           3.7320   -2.6200    0.0000 H       1  UNL1        0.0344
     17 H           5.1350    0.8100    0.0000 H       1  UNL1        0.0623
     18 H           2.3291   -0.8100    0.0000 H       1  UNL1        0.0623
     19 H           3.1760    3.0369    0.0000 H       1  UNL1        0.0235
     20 H           2.3291    2.8100    0.0000 H       1  UNL1        0.0235
     21 H           4.9081    1.9631    0.0000 H       1  UNL1        0.0235
     22 H           5.1350    2.8100    0.0000 H       1  UNL1        0.0235
     23 H           4.2881    3.0369    0.0000 H       1  UNL1        0.0235
     24 H           2.5560    1.9631    0.0000 H       1  UNL1        0.0235
     25 H           2.5560   -1.9631    0.0000 H       1  UNL1        0.0235
     26 H           2.3291   -2.8100    0.0000 H       1  UNL1        0.0235
     27 H           3.1760   -3.0369    0.0000 H       1  UNL1        0.0235
     28 H           4.2881   -3.0369    0.0000 H       1  UNL1        0.0235
     29 H           5.1350   -2.8100    0.0000 H       1  UNL1        0.0235
     30 H           4.9081   -1.9631    0.0000 H       1  UNL1        0.0235
     31 H           2.3100    1.5369    0.0000 H       1  UNL1        0.0278
     32 H           1.4631    1.3100    0.0000 H       1  UNL1        0.0278
     33 H           1.6900    0.4631    0.0000 H       1  UNL1        0.0278
     34 H           5.1541   -1.5369    0.0000 H       1  UNL1        0.0278
     35 H           6.0010   -1.3100    0.0000 H       1  UNL1        0.0278
     36 H           5.7741   -0.4631    0.0000 H       1  UNL1        0.0278
@<TRIPOS>BOND
     1     1     3    1
     2     1     5   ar
     3     1     7   ar
     4     2     4    1
     5     2     6   ar
     6     2     8   ar
     7     3     9    1
     8     3    10    1
     9     3    15    1
    10     4    11    1
    11     4    12    1
    12     4    16    1
    13     5     8   ar
    14     5    13    1
    15     6     7   ar
    16     6    14    1
    17     7    17    1
    18     8    18    1
    19     9    21    1
    20     9    22    1
    21     9    23    1
    22    10    19    1
    23    10    20    1
    24    10    24    1
    25    11    25    1
    26    11    26    1
    27    11    27    1
    28    12    28    1
    29    12    29    1
    30    12    30    1
    31    13    31    1
    32    13    32    1
    33    13    33    1
    34    14    34    1
    35    14    35    1
    36    14    36    1
