@<TRIPOS>MOLECULE
IMPHY007804
 30 32 0 0 0
SMALL
GASTEIGER

@<TRIPOS>ATOM
      1 O           6.4783   -0.8047    0.0000 O.2     1  UNL1       -0.4800
      2 O           4.6660    2.0000    0.0000 O.2     1  UNL1       -0.2868
      3 O           4.6660   -2.0000    0.0000 O.2     1  UNL1       -0.2834
      4 C           7.0619    0.0000    0.0000 C.3     1  UNL1        0.1251
      5 C           6.4783    0.8047    0.0000 C.3     1  UNL1        0.0207
      6 C           5.5321    0.5000    0.0000 C.2     1  UNL1        0.0491
      7 C           5.5321   -0.5000    0.0000 C.2     1  UNL1        0.1754
      8 C           4.6660    1.0000    0.0000 C.2     1  UNL1        0.1936
      9 C           8.0619    0.0000    0.0000 C.2     1  UNL1       -0.0395
     10 C           3.8000    0.5000    0.0000 C.ar    1  UNL1        0.0330
     11 C           4.6660   -1.0000    0.0000 C.2     1  UNL1        0.2284
     12 C           3.8000   -0.5000    0.0000 C.ar    1  UNL1        0.0362
     13 C           8.5619   -0.8660    0.0000 C.3     1  UNL1       -0.0406
     14 C           2.9061    1.0347    0.0000 C.ar    1  UNL1       -0.0502
     15 C           2.9061   -1.0347    0.0000 C.ar    1  UNL1       -0.0501
     16 C           8.5619    0.8660    0.0000 C.2     1  UNL1       -0.0962
     17 C           2.0000    0.5208    0.0000 C.ar    1  UNL1       -0.0610
     18 C           2.0000   -0.5208    0.0000 C.ar    1  UNL1       -0.0610
     19 H           7.3436   -0.5523    0.0000 H       1  UNL1        0.0784
     20 H           7.0157    1.1140    0.0000 H       1  UNL1        0.0355
     21 H           6.2272    1.3716    0.0000 H       1  UNL1        0.0355
     22 H           8.0250   -1.1760    0.0000 H       1  UNL1        0.0275
     23 H           8.8719   -1.4030    0.0000 H       1  UNL1        0.0275
     24 H           9.0988   -0.5560    0.0000 H       1  UNL1        0.0275
     25 H           2.9132    1.6546    0.0000 H       1  UNL1        0.0625
     26 H           2.9132   -1.6546    0.0000 H       1  UNL1        0.0625
     27 H           9.1819    0.8660    0.0000 H       1  UNL1        0.0535
     28 H           8.2519    1.4030    0.0000 H       1  UNL1        0.0535
     29 H           1.4643    0.8329    0.0000 H       1  UNL1        0.0618
     30 H           1.4643   -0.8329    0.0000 H       1  UNL1        0.0618
@<TRIPOS>BOND
     1     1     4    1
     2     1     7    1
     3     2     8    2
     4     3    11    2
     5     4     5    1
     6     4     9    1
     7     4    19    1
     8     5     6    1
     9     5    20    1
    10     5    21    1
    11     6     7    2
    12     6     8    1
    13     7    11    1
    14     8    10    1
    15     9    13    1
    16     9    16    2
    17    10    12   ar
    18    10    14   ar
    19    11    12    1
    20    12    15   ar
    21    13    22    1
    22    13    23    1
    23    13    24    1
    24    14    17   ar
    25    14    25    1
    26    15    18   ar
    27    15    26    1
    28    16    27    1
    29    16    28    1
    30    17    18   ar
    31    17    29    1
    32    18    30    1
