@<TRIPOS>MOLECULE
IMPHY005859
 54 58 0 0 0
SMALL
GASTEIGER

@<TRIPOS>ATOM
      1 O           8.9821    0.6698    0.0000 O.2     1  UNL1       -0.4541
      2 O           5.4914    1.6728    0.0000 O.3     1  UNL1       -0.3944
      3 O           6.3840    2.1698    0.0000 O.2     1  UNL1       -0.2866
      4 O           8.1692   -4.0269    0.0000 O.3     1  UNL1       -0.5033
      5 O           9.9725   -2.9672    0.0000 O.3     1  UNL1       -0.5033
      6 O           2.8680   -0.8653    0.0000 O.3     1  UNL1       -0.4914
      7 O           7.2283    3.7012    0.0000 O.3     1  UNL1       -0.5058
      8 O           2.8602   -2.8653    0.0000 O.3     1  UNL1       -0.5033
      9 O          10.7681    3.7149    0.0000 O.3     1  UNL1       -0.5065
     10 C           6.3400    0.1629    0.0000 C.3     1  UNL1        0.0253
     11 C           6.3320   -0.8787    0.0000 C.3     1  UNL1        0.0193
     12 C           7.2500    0.6698    0.0000 C.ar    1  UNL1        0.0490
     13 C           7.2341   -1.3995    0.0000 C.ar    1  UNL1       -0.0250
     14 C           8.1321   -0.8717    0.0000 C.ar    1  UNL1        0.0251
     15 C           8.1161    0.1698    0.0000 C.ar    1  UNL1        0.1432
     16 C           5.4641   -1.3753    0.0000 C.ar    1  UNL1       -0.0356
     17 C           5.4799    0.6729    0.0000 C.3     1  UNL1        0.0521
     18 C           7.2500    1.6698    0.0000 C.ar    1  UNL1        0.2001
     19 C           7.2257   -2.4844    0.0000 C.ar    1  UNL1       -0.0121
     20 C           9.0841   -1.3924    0.0000 C.ar    1  UNL1       -0.0056
     21 C           8.1161    2.1698    0.0000 C.ar    1  UNL1        0.1058
     22 C           4.6000   -0.8720    0.0000 C.ar    1  UNL1       -0.0125
     23 C           5.4602   -2.3753    0.0000 C.ar    1  UNL1       -0.0543
     24 C           8.9821    1.6698    0.0000 C.ar    1  UNL1        0.1463
     25 C           8.1654   -3.0269    0.0000 C.ar    1  UNL1        0.1585
     26 C           9.1008   -2.4772    0.0000 C.ar    1  UNL1        0.1589
     27 C           3.7320   -1.3687    0.0000 C.ar    1  UNL1        0.1615
     28 C           8.1000    3.2113    0.0000 C.ar    1  UNL1        0.1347
     29 C           4.5923   -2.8720    0.0000 C.ar    1  UNL1       -0.0162
     30 C           9.8921    2.1766    0.0000 C.ar    1  UNL1        0.0231
     31 C           3.7282   -2.3686    0.0000 C.ar    1  UNL1        0.1585
     32 C           8.9981    3.7390    0.0000 C.ar    1  UNL1        0.0223
     33 C           9.9001    3.2182    0.0000 C.ar    1  UNL1        0.1239
     34 C           2.0000   -1.3620    0.0000 C.3     1  UNL1        0.0790
     35 H           6.3484    0.7829    0.0000 H       1  UNL1        0.0383
     36 H           5.7969   -0.5656    0.0000 H       1  UNL1        0.0404
     37 H           4.8706    0.7876    0.0000 H       1  UNL1        0.0563
     38 H           5.2611    0.0928    0.0000 H       1  UNL1        0.0563
     39 H           6.6876   -2.7924    0.0000 H       1  UNL1        0.0658
     40 H           9.6149   -1.0721    0.0000 H       1  UNL1        0.0662
     41 H           4.6024   -0.2520    0.0000 H       1  UNL1        0.0658
     42 H           5.9960   -2.6874    0.0000 H       1  UNL1        0.0622
     43 H           4.9581    1.9890    0.0000 H       1  UNL1        0.2094
     44 H           4.5899   -3.4920    0.0000 H       1  UNL1        0.0655
     45 H          10.4254    1.8604    0.0000 H       1  UNL1        0.0691
     46 H           8.9957    4.3590    0.0000 H       1  UNL1        0.0691
     47 H           8.7074   -4.3349    0.0000 H       1  UNL1        0.2923
     48 H          10.5059   -2.6510    0.0000 H       1  UNL1        0.2923
     49 H           7.2211    4.3212    0.0000 H       1  UNL1        0.2922
     50 H           2.8578   -3.4853    0.0000 H       1  UNL1        0.2923
     51 H          10.7705    4.3349    0.0000 H       1  UNL1        0.2921
     52 H           1.6921   -0.8239    0.0000 H       1  UNL1        0.0660
     53 H           1.4619   -1.6699    0.0000 H       1  UNL1        0.0660
     54 H           2.3079   -1.9001    0.0000 H       1  UNL1        0.0660
@<TRIPOS>BOND
     1     1    15   ar
     2     1    24   ar
     3     2    17    1
     4     2    43    1
     5     3    18    2
     6     4    25    1
     7     4    47    1
     8     5    26    1
     9     5    48    1
    10     6    27    1
    11     6    34    1
    12     7    28    1
    13     7    49    1
    14     8    31    1
    15     8    50    1
    16     9    33    1
    17     9    51    1
    18    10    11    1
    19    10    12    1
    20    10    17    1
    21    10    35    1
    22    11    13    1
    23    11    16    1
    24    11    36    1
    25    12    15   ar
    26    12    18   ar
    27    13    14   ar
    28    13    19   ar
    29    14    15    1
    30    14    20   ar
    31    16    22   ar
    32    16    23   ar
    33    17    37    1
    34    17    38    1
    35    18    21   ar
    36    19    25   ar
    37    19    39    1
    38    20    26   ar
    39    20    40    1
    40    21    24   ar
    41    21    28   ar
    42    22    27   ar
    43    22    41    1
    44    23    29   ar
    45    23    42    1
    46    24    30   ar
    47    25    26   ar
    48    27    31   ar
    49    28    32   ar
    50    29    31   ar
    51    29    44    1
    52    30    33   ar
    53    30    45    1
    54    32    33   ar
    55    32    46    1
    56    34    52    1
    57    34    53    1
    58    34    54    1
