@<TRIPOS>MOLECULE
IMPHY007133
 13 13 0 0 0
SMALL
GASTEIGER

@<TRIPOS>ATOM
      1 O           2.8090   -1.1739    0.0000 O.3     1  UNL1       -0.4611
      2 O           4.5691   -0.8952    0.0000 O.2     1  UNL1       -0.2453
      3 C           2.3090    0.3649    0.0000 C.3     1  UNL1        0.0129
      4 C           2.0000   -0.5861    0.0000 C.3     1  UNL1        0.0969
      5 C           3.3090    0.3649    0.0000 C.2     1  UNL1        0.0327
      6 C           3.6180   -0.5861    0.0000 C.2     1  UNL1        0.3347
      7 C           3.8968    1.1739    0.0000 C.2     1  UNL1       -0.0886
      8 H           2.3738    0.9815    0.0000 H       1  UNL1        0.0348
      9 H           1.7026    0.4938    0.0000 H       1  UNL1        0.0348
     10 H           1.4336   -0.3340    0.0000 H       1  UNL1        0.0701
     11 H           1.6900   -1.1231    0.0000 H       1  UNL1        0.0701
     12 H           4.5134    1.1091    0.0000 H       1  UNL1        0.0540
     13 H           3.6446    1.7403    0.0000 H       1  UNL1        0.0540
@<TRIPOS>BOND
     1     1     4    1
     2     1     6    1
     3     2     6    2
     4     3     4    1
     5     3     5    1
     6     3     8    1
     7     3     9    1
     8     4    10    1
     9     4    11    1
    10     5     6    1
    11     5     7    2
    12     7    12    1
    13     7    13    1
