@<TRIPOS>MOLECULE
IMPHY002750
 14 14 0 0 0
SMALL
GASTEIGER

@<TRIPOS>ATOM
      1 O           2.8090   -0.4197    0.0000 O.2     1  UNL1       -0.4600
      2 O           5.3122    0.5282    0.0000 O.2     1  UNL1       -0.2891
      3 C           3.6180    0.1681    0.0000 C.ar    1  UNL1        0.1695
      4 C           3.3090    1.1191    0.0000 C.ar    1  UNL1       -0.0130
      5 C           4.5691   -0.1410    0.0000 C.2     1  UNL1        0.1948
      6 C           2.3090    1.1191    0.0000 C.ar    1  UNL1       -0.0232
      7 C           4.7770   -1.1191    0.0000 C.3     1  UNL1        0.0017
      8 C           2.0000    0.1681    0.0000 C.ar    1  UNL1        0.0927
      9 H           3.6734    1.6207    0.0000 H       1  UNL1        0.0656
     10 H           1.9446    1.6207    0.0000 H       1  UNL1        0.0649
     11 H           4.1706   -1.2480    0.0000 H       1  UNL1        0.0310
     12 H           4.9059   -1.7256    0.0000 H       1  UNL1        0.0310
     13 H           5.3834   -0.9902    0.0000 H       1  UNL1        0.0310
     14 H           1.4103   -0.0235    0.0000 H       1  UNL1        0.1029
@<TRIPOS>BOND
     1     1     3   ar
     2     1     8   ar
     3     2     5    2
     4     3     4   ar
     5     3     5    1
     6     4     6   ar
     7     4     9    1
     8     5     7    1
     9     6     8   ar
    10     6    10    1
    11     7    11    1
    12     7    12    1
    13     7    13    1
    14     8    14    1
