@<TRIPOS>MOLECULE
IMPHY017284
 24 24 0 0 0
SMALL
GASTEIGER

@<TRIPOS>ATOM
      1 O           2.8660   -2.7500    0.0000 O.3     1  UNL1       -0.5068
      2 N           3.7320    2.7500    0.0000 N.3     1  UNL1       -0.3272
      3 C           3.7320    1.7500    0.0000 C.3     1  UNL1        0.0060
      4 C           2.8660    1.2500    0.0000 C.3     1  UNL1       -0.0127
      5 C           2.8660    0.2500    0.0000 C.ar    1  UNL1       -0.0457
      6 C           4.5981    1.2500    0.0000 C.3     1  UNL1       -0.0496
      7 C           2.0000   -0.2500    0.0000 C.ar    1  UNL1       -0.0551
      8 C           3.7320   -0.2500    0.0000 C.ar    1  UNL1       -0.0551
      9 C           2.0000   -1.2500    0.0000 C.ar    1  UNL1       -0.0199
     10 C           3.7320   -1.2500    0.0000 C.ar    1  UNL1       -0.0199
     11 C           2.8660   -1.7500    0.0000 C.ar    1  UNL1        0.1169
     12 H           4.2690    2.0600    0.0000 H       1  UNL1        0.0459
     13 H           2.6540    1.8326    0.0000 H       1  UNL1        0.0328
     14 H           2.2554    1.1423    0.0000 H       1  UNL1        0.0328
     15 H           4.2881    0.7131    0.0000 H       1  UNL1        0.0245
     16 H           5.1350    0.9400    0.0000 H       1  UNL1        0.0245
     17 H           4.9081    1.7869    0.0000 H       1  UNL1        0.0245
     18 H           1.4631    0.0600    0.0000 H       1  UNL1        0.0621
     19 H           4.2690    0.0600    0.0000 H       1  UNL1        0.0621
     20 H           4.2690    3.0600    0.0000 H       1  UNL1        0.1185
     21 H           3.1951    3.0600    0.0000 H       1  UNL1        0.1185
     22 H           1.4631   -1.5600    0.0000 H       1  UNL1        0.0654
     23 H           4.2690   -1.5600    0.0000 H       1  UNL1        0.0654
     24 H           2.3291   -3.0600    0.0000 H       1  UNL1        0.2921
@<TRIPOS>BOND
     1     1    11    1
     2     1    24    1
     3     2     3    1
     4     2    20    1
     5     2    21    1
     6     3     4    1
     7     3     6    1
     8     3    12    1
     9     4     5    1
    10     4    13    1
    11     4    14    1
    12     5     7   ar
    13     5     8   ar
    14     6    15    1
    15     6    16    1
    16     6    17    1
    17     7     9   ar
    18     7    18    1
    19     8    10   ar
    20     8    19    1
    21     9    11   ar
    22     9    22    1
    23    10    11   ar
    24    10    23    1
