@<TRIPOS>MOLECULE
IMPHY006278
 20 20 0 0 0
SMALL
GASTEIGER

@<TRIPOS>ATOM
      1 O           6.0010   -0.0600    0.0000 O.3     1  UNL1       -0.4942
      2 O           2.5369   -0.0600    0.0000 O.3     1  UNL1       -0.5058
      3 O           5.1350    1.4400    0.0000 O.3     1  UNL1       -0.4770
      4 O           3.4030    1.4400    0.0000 O.2     1  UNL1       -0.2449
      5 C           4.2690   -0.0600    0.0000 C.ar    1  UNL1        0.1415
      6 C           5.1350   -0.5600    0.0000 C.ar    1  UNL1        0.1376
      7 C           3.4030   -0.5600    0.0000 C.ar    1  UNL1        0.1344
      8 C           5.1350   -1.5600    0.0000 C.ar    1  UNL1       -0.0189
      9 C           3.4030   -1.5600    0.0000 C.ar    1  UNL1       -0.0191
     10 C           4.2690   -2.0600    0.0000 C.ar    1  UNL1       -0.0548
     11 C           4.2690    0.9400    0.0000 C.2     1  UNL1        0.3440
     12 C           6.8671   -0.5600    0.0000 C.3     1  UNL1        0.0788
     13 H           5.6720   -1.8700    0.0000 H       1  UNL1        0.0654
     14 H           2.8660   -1.8700    0.0000 H       1  UNL1        0.0654
     15 H           4.2690   -2.6800    0.0000 H       1  UNL1        0.0620
     16 H           6.5571   -1.0969    0.0000 H       1  UNL1        0.0660
     17 H           7.4040   -0.8700    0.0000 H       1  UNL1        0.0660
     18 H           7.1771   -0.0231    0.0000 H       1  UNL1        0.0660
     19 H           2.0000   -0.3700    0.0000 H       1  UNL1        0.2922
     20 H           5.1350    2.0600    0.0000 H       1  UNL1        0.2954
@<TRIPOS>BOND
     1     1     6    1
     2     1    12    1
     3     2     7    1
     4     2    19    1
     5     3    11    1
     6     3    20    1
     7     4    11    2
     8     5     6   ar
     9     5     7   ar
    10     5    11    1
    11     6     8   ar
    12     7     9   ar
    13     8    10   ar
    14     8    13    1
    15     9    10   ar
    16     9    14    1
    17    10    15    1
    18    12    16    1
    19    12    17    1
    20    12    18    1
