@<TRIPOS>MOLECULE
IMPHY017675
 16 17 0 0 0
SMALL
GASTEIGER

@<TRIPOS>ATOM
      1 O           4.6783   -0.8047    0.0000 O.3     1  UNL1       -0.4253
      2 O           6.2619    0.0000    0.0000 O.2     1  UNL1       -0.2500
      3 C           3.7320    0.5000    0.0000 C.ar    1  UNL1        0.0056
      4 C           4.6783    0.8047    0.0000 C.3     1  UNL1        0.0739
      5 C           3.7320   -0.5000    0.0000 C.ar    1  UNL1        0.1353
      6 C           5.2619    0.0000    0.0000 C.2     1  UNL1        0.3168
      7 C           2.8660    1.0000    0.0000 C.ar    1  UNL1       -0.0546
      8 C           2.8660   -1.0000    0.0000 C.ar    1  UNL1       -0.0189
      9 C           2.0000    0.5000    0.0000 C.ar    1  UNL1       -0.0613
     10 C           2.0000   -0.5000    0.0000 C.ar    1  UNL1       -0.0583
     11 H           5.2156    1.1140    0.0000 H       1  UNL1        0.0428
     12 H           4.4272    1.3716    0.0000 H       1  UNL1        0.0428
     13 H           2.8660    1.6200    0.0000 H       1  UNL1        0.0622
     14 H           2.8660   -1.6200    0.0000 H       1  UNL1        0.0654
     15 H           1.4631    0.8100    0.0000 H       1  UNL1        0.0618
     16 H           1.4631   -0.8100    0.0000 H       1  UNL1        0.0619
@<TRIPOS>BOND
     1     1     5    1
     2     1     6    1
     3     2     6    2
     4     3     4    1
     5     3     5   ar
     6     3     7   ar
     7     4     6    1
     8     4    11    1
     9     4    12    1
    10     5     8   ar
    11     7     9   ar
    12     7    13    1
    13     8    10   ar
    14     8    14    1
    15     9    10   ar
    16     9    15    1
    17    10    16    1
