@<TRIPOS>MOLECULE
IMPHY004630
 46 46 0 0 0
SMALL
GASTEIGER

@<TRIPOS>ATOM
      1 O           6.3301    1.4050    0.0000 O.3     1  UNL1       -0.4562
      2 O           4.5981    1.4050    0.0000 O.2     1  UNL1       -0.2456
      3 O           6.3301   -3.5950    0.0000 O.3     1  UNL1       -0.4913
      4 O           2.8660   -3.5950    0.0000 O.3     1  UNL1       -0.4913
      5 O           4.5981   -4.5950    0.0000 O.3     1  UNL1       -0.5009
      6 N           7.1962    3.9050    0.0000 N.4     1  UNL1        0.2393
      7 C           7.1962    2.9050    0.0000 C.3     1  UNL1        0.0042
      8 C           7.1962    4.9050    0.0000 C.3     1  UNL1       -0.0417
      9 C           8.1962    3.9050    0.0000 C.3     1  UNL1       -0.0417
     10 C           6.1962    3.9050    0.0000 C.3     1  UNL1       -0.0417
     11 C           6.3301    2.4050    0.0000 C.3     1  UNL1        0.1324
     12 C           5.4641    0.9050    0.0000 C.2     1  UNL1        0.3321
     13 C           5.4641   -0.0950    0.0000 C.2     1  UNL1        0.0231
     14 C           4.5981   -1.5950    0.0000 C.ar    1  UNL1       -0.0177
     15 C           4.5981   -0.5950    0.0000 C.2     1  UNL1       -0.0476
     16 C           3.7320   -2.0950    0.0000 C.ar    1  UNL1       -0.0089
     17 C           5.4641   -2.0950    0.0000 C.ar    1  UNL1       -0.0089
     18 C           5.4641   -3.0950    0.0000 C.ar    1  UNL1        0.1655
     19 C           3.7320   -3.0950    0.0000 C.ar    1  UNL1        0.1655
     20 C           4.5981   -3.5950    0.0000 C.ar    1  UNL1        0.2010
     21 C           7.1962   -3.0950    0.0000 C.3     1  UNL1        0.0790
     22 C           2.0000   -3.0950    0.0000 C.3     1  UNL1        0.0790
     23 H           7.4082    2.3224    0.0000 H       1  UNL1        0.0849
     24 H           7.8067    3.0127    0.0000 H       1  UNL1        0.0849
     25 H           6.1962    4.5250    0.0000 H       1  UNL1        0.0778
     26 H           7.8162    4.9050    0.0000 H       1  UNL1        0.0778
     27 H           7.1962    5.5250    0.0000 H       1  UNL1        0.0778
     28 H           6.5762    4.9050    0.0000 H       1  UNL1        0.0778
     29 H           8.1962    3.2850    0.0000 H       1  UNL1        0.0778
     30 H           8.8162    3.9050    0.0000 H       1  UNL1        0.0778
     31 H           8.1962    4.5250    0.0000 H       1  UNL1        0.0778
     32 H           5.5762    3.9050    0.0000 H       1  UNL1        0.0778
     33 H           6.1962    3.2850    0.0000 H       1  UNL1        0.0778
     34 H           6.1181    2.9876    0.0000 H       1  UNL1        0.0752
     35 H           5.7196    2.2973    0.0000 H       1  UNL1        0.0752
     36 H           6.0010   -0.4050    0.0000 H       1  UNL1        0.0689
     37 H           4.0611   -0.2850    0.0000 H       1  UNL1        0.0626
     38 H           3.1951   -1.7850    0.0000 H       1  UNL1        0.0661
     39 H           6.0010   -1.7850    0.0000 H       1  UNL1        0.0661
     40 H           4.0611   -4.9050    0.0000 H       1  UNL1        0.2924
     41 H           7.5062   -3.6319    0.0000 H       1  UNL1        0.0660
     42 H           7.7331   -2.7850    0.0000 H       1  UNL1        0.0660
     43 H           6.8862   -2.5581    0.0000 H       1  UNL1        0.0660
     44 H           2.3100   -2.5581    0.0000 H       1  UNL1        0.0660
     45 H           1.4631   -2.7850    0.0000 H       1  UNL1        0.0660
     46 H           1.6900   -3.6319    0.0000 H       1  UNL1        0.0660
@<TRIPOS>UNITY_ATOM_ATTR
6 1
charge 1
@<TRIPOS>BOND
     1     1    11    1
     2     1    12    1
     3     2    12    2
     4     3    18    1
     5     3    21    1
     6     4    19    1
     7     4    22    1
     8     5    20    1
     9     5    40    1
    10     6     7    1
    11     6     8    1
    12     6     9    1
    13     6    10    1
    14     7    11    1
    15     7    23    1
    16     7    24    1
    17     8    26    1
    18     8    27    1
    19     8    28    1
    20     9    29    1
    21     9    30    1
    22     9    31    1
    23    10    25    1
    24    10    32    1
    25    10    33    1
    26    11    34    1
    27    11    35    1
    28    12    13    1
    29    13    15    2
    30    13    36    1
    31    14    15    1
    32    14    16   ar
    33    14    17   ar
    34    15    37    1
    35    16    19   ar
    36    16    38    1
    37    17    18   ar
    38    17    39    1
    39    18    20   ar
    40    19    20   ar
    41    21    41    1
    42    21    42    1
    43    21    43    1
    44    22    44    1
    45    22    45    1
    46    22    46    1
