@<TRIPOS>MOLECULE
IMPHY011524
 43 44 0 0 0
SMALL
GASTEIGER

@<TRIPOS>ATOM
      1 O           2.8660   -2.7032    0.0000 O.2     1  UNL1       -0.3010
      2 C           4.5981    0.2968    0.0000 C.3     1  UNL1       -0.0219
      3 C           4.5981    1.2968    0.0000 C.3     1  UNL1       -0.0296
      4 C           5.4920    1.8315    0.0000 C.3     1  UNL1       -0.0315
      5 C           3.7320   -0.2032    0.0000 C.3     1  UNL1       -0.0081
      6 C           5.4920   -0.2379    0.0000 C.3     1  UNL1       -0.0468
      7 C           3.7320    1.7968    0.0000 C.3     1  UNL1       -0.0455
      8 C           6.3981    1.3176    0.0000 C.3     1  UNL1       -0.0476
      9 C           6.3981    0.2760    0.0000 C.3     1  UNL1       -0.0520
     10 C           4.5981   -0.7032    0.0000 C.3     1  UNL1       -0.0587
     11 C           2.8660    1.2968    0.0000 C.3     1  UNL1       -0.0314
     12 C           2.8660    0.2968    0.0000 C.2     1  UNL1       -0.0726
     13 C           5.9820    2.7032    0.0000 C.3     1  UNL1       -0.0595
     14 C           4.9820    2.6916    0.0000 C.3     1  UNL1       -0.0595
     15 C           3.7320   -1.2032    0.0000 C.3     1  UNL1        0.0098
     16 C           2.0000   -0.2032    0.0000 C.2     1  UNL1       -0.0992
     17 C           2.8660   -1.7032    0.0000 C.2     1  UNL1        0.1209
     18 H           4.5915    2.1468    0.0000 H       1  UNL1        0.0311
     19 H           3.1951   -0.5132    0.0000 H       1  UNL1        0.0355
     20 H           5.0874   -0.7077    0.0000 H       1  UNL1        0.0271
     21 H           5.8856   -0.7169    0.0000 H       1  UNL1        0.0271
     22 H           4.1306    2.2717    0.0000 H       1  UNL1        0.0271
     23 H           3.3335    2.2717    0.0000 H       1  UNL1        0.0271
     24 H           7.0089    1.2115    0.0000 H       1  UNL1        0.0271
     25 H           6.6071    1.9013    0.0000 H       1  UNL1        0.0271
     26 H           6.6071   -0.3077    0.0000 H       1  UNL1        0.0266
     27 H           7.0089    0.3821    0.0000 H       1  UNL1        0.0266
     28 H           3.9781   -0.7032    0.0000 H       1  UNL1        0.0235
     29 H           4.5981   -1.3232    0.0000 H       1  UNL1        0.0235
     30 H           5.2181   -0.7032    0.0000 H       1  UNL1        0.0235
     31 H           2.6540    1.8794    0.0000 H       1  UNL1        0.0310
     32 H           2.2554    1.1891    0.0000 H       1  UNL1        0.0310
     33 H           6.5225    2.3994    0.0000 H       1  UNL1        0.0235
     34 H           5.5154    3.0078    0.0000 H       1  UNL1        0.0235
     35 H           4.6658    3.2250    0.0000 H       1  UNL1        0.0235
     36 H           4.4487    2.3754    0.0000 H       1  UNL1        0.0235
     37 H           6.2857    3.2437    0.0000 H       1  UNL1        0.0235
     38 H           5.4415    3.0070    0.0000 H       1  UNL1        0.0235
     39 H           3.9441   -1.7858    0.0000 H       1  UNL1        0.0345
     40 H           4.3426   -1.0955    0.0000 H       1  UNL1        0.0345
     41 H           1.4631    0.1068    0.0000 H       1  UNL1        0.0534
     42 H           2.0000   -0.8232    0.0000 H       1  UNL1        0.0534
     43 H           2.3291   -1.3932    0.0000 H       1  UNL1        0.1026
@<TRIPOS>BOND
     1     1    17    2
     2     2     3    1
     3     2     5    1
     4     2     6    1
     5     2    10    1
     6     3     4    1
     7     3     7    1
     8     3    18    1
     9     4     8    1
    10     4    13    1
    11     4    14    1
    12     5    12    1
    13     5    15    1
    14     5    19    1
    15     6     9    1
    16     6    20    1
    17     6    21    1
    18     7    11    1
    19     7    22    1
    20     7    23    1
    21     8     9    1
    22     8    24    1
    23     8    25    1
    24     9    26    1
    25     9    27    1
    26    10    28    1
    27    10    29    1
    28    10    30    1
    29    11    12    1
    30    11    31    1
    31    11    32    1
    32    12    16    2
    33    13    33    1
    34    13    37    1
    35    13    38    1
    36    14    34    1
    37    14    35    1
    38    14    36    1
    39    15    17    1
    40    15    39    1
    41    15    40    1
    42    16    41    1
    43    16    42    1
    44    17    43    1
