@<TRIPOS>MOLECULE
IMPHY006710
 182 181 0 0 0
SMALL
GASTEIGER

@<TRIPOS>ATOM
      1 O          28.8468    0.7500    0.0000 O.3     1  UNL1       -0.4646
      2 O          27.9808   -0.7500    0.0000 O.2     1  UNL1       -0.2509
      3 C          14.9904    0.7500    0.0000 C.3     1  UNL1       -0.0531
      4 C          15.8564    0.2500    0.0000 C.3     1  UNL1       -0.0531
      5 C          14.1244    0.2500    0.0000 C.3     1  UNL1       -0.0531
      6 C          16.7224    0.7500    0.0000 C.3     1  UNL1       -0.0531
      7 C          13.2583    0.7500    0.0000 C.3     1  UNL1       -0.0531
      8 C          40.9711    0.7500    0.0000 C.3     1  UNL1       -0.0531
      9 C          41.8372    0.2500    0.0000 C.3     1  UNL1       -0.0531
     10 C          40.1051    0.2500    0.0000 C.3     1  UNL1       -0.0531
     11 C          17.5885    0.2500    0.0000 C.3     1  UNL1       -0.0531
     12 C          42.7032    0.7500    0.0000 C.3     1  UNL1       -0.0531
     13 C          12.3923    0.2500    0.0000 C.3     1  UNL1       -0.0531
     14 C          39.2391    0.7500    0.0000 C.3     1  UNL1       -0.0531
     15 C          43.5692    0.2500    0.0000 C.3     1  UNL1       -0.0531
     16 C          18.4545    0.7500    0.0000 C.3     1  UNL1       -0.0531
     17 C          11.5263    0.7500    0.0000 C.3     1  UNL1       -0.0531
     18 C          38.3731    0.2500    0.0000 C.3     1  UNL1       -0.0531
     19 C          44.4352    0.7500    0.0000 C.3     1  UNL1       -0.0531
     20 C          19.3205    0.2500    0.0000 C.3     1  UNL1       -0.0531
     21 C          10.6603    0.2500    0.0000 C.3     1  UNL1       -0.0531
     22 C          37.5070    0.7500    0.0000 C.3     1  UNL1       -0.0531
     23 C          45.3013    0.2500    0.0000 C.3     1  UNL1       -0.0531
     24 C          20.1865    0.7500    0.0000 C.3     1  UNL1       -0.0531
     25 C           9.7942    0.7500    0.0000 C.3     1  UNL1       -0.0531
     26 C          36.6410    0.2500    0.0000 C.3     1  UNL1       -0.0531
     27 C          46.1673    0.7500    0.0000 C.3     1  UNL1       -0.0531
     28 C          21.0526    0.2500    0.0000 C.3     1  UNL1       -0.0531
     29 C           8.9282    0.2500    0.0000 C.3     1  UNL1       -0.0531
     30 C          35.7750    0.7500    0.0000 C.3     1  UNL1       -0.0531
     31 C          47.0333    0.2500    0.0000 C.3     1  UNL1       -0.0531
     32 C          21.9186    0.7500    0.0000 C.3     1  UNL1       -0.0531
     33 C          34.9090    0.2500    0.0000 C.3     1  UNL1       -0.0531
     34 C           8.0622    0.7500    0.0000 C.3     1  UNL1       -0.0531
     35 C          47.8993    0.7500    0.0000 C.3     1  UNL1       -0.0531
     36 C          22.7846    0.2500    0.0000 C.3     1  UNL1       -0.0531
     37 C          34.0429    0.7500    0.0000 C.3     1  UNL1       -0.0531
     38 C           7.1962    0.2500    0.0000 C.3     1  UNL1       -0.0531
     39 C          48.7654    0.2500    0.0000 C.3     1  UNL1       -0.0531
     40 C          23.6506    0.7500    0.0000 C.3     1  UNL1       -0.0531
     41 C          33.1769    0.2500    0.0000 C.3     1  UNL1       -0.0531
     42 C           6.3301    0.7500    0.0000 C.3     1  UNL1       -0.0531
     43 C          49.6314    0.7500    0.0000 C.3     1  UNL1       -0.0531
     44 C          24.5167    0.2500    0.0000 C.3     1  UNL1       -0.0530
     45 C          32.3109    0.7500    0.0000 C.3     1  UNL1       -0.0530
     46 C           5.4641    0.2500    0.0000 C.3     1  UNL1       -0.0531
     47 C          50.4974    0.2500    0.0000 C.3     1  UNL1       -0.0531
     48 C          25.3827    0.7500    0.0000 C.3     1  UNL1       -0.0526
     49 C          31.4449    0.2500    0.0000 C.3     1  UNL1       -0.0500
     50 C           4.5981    0.7500    0.0000 C.3     1  UNL1       -0.0531
     51 C          51.3634    0.7500    0.0000 C.3     1  UNL1       -0.0531
     52 C          26.2487    0.2500    0.0000 C.3     1  UNL1       -0.0430
     53 C          30.5788    0.7500    0.0000 C.3     1  UNL1       -0.0185
     54 C           3.7320    0.2500    0.0000 C.3     1  UNL1       -0.0533
     55 C          52.2295    0.2500    0.0000 C.3     1  UNL1       -0.0533
     56 C          27.1147    0.7500    0.0000 C.3     1  UNL1        0.0449
     57 C          29.7128    0.2500    0.0000 C.3     1  UNL1        0.0925
     58 C           2.8660    0.7500    0.0000 C.3     1  UNL1       -0.0559
     59 C          53.0955    0.7500    0.0000 C.3     1  UNL1       -0.0559
     60 C          27.9808    0.2500    0.0000 C.2     1  UNL1        0.3071
     61 C           2.0000    0.2500    0.0000 C.3     1  UNL1       -0.0653
     62 C          53.9615    0.2500    0.0000 C.3     1  UNL1       -0.0653
     63 H          15.3889    1.2250    0.0000 H       1  UNL1        0.0265
     64 H          14.5919    1.2250    0.0000 H       1  UNL1        0.0265
     65 H          15.4579   -0.2249    0.0000 H       1  UNL1        0.0265
     66 H          16.2549   -0.2249    0.0000 H       1  UNL1        0.0265
     67 H          13.7258   -0.2249    0.0000 H       1  UNL1        0.0265
     68 H          14.5229   -0.2249    0.0000 H       1  UNL1        0.0265
     69 H          17.1210    1.2250    0.0000 H       1  UNL1        0.0265
     70 H          16.3239    1.2250    0.0000 H       1  UNL1        0.0265
     71 H          13.6569    1.2250    0.0000 H       1  UNL1        0.0265
     72 H          12.8598    1.2250    0.0000 H       1  UNL1        0.0265
     73 H          41.3697    1.2250    0.0000 H       1  UNL1        0.0265
     74 H          40.5726    1.2250    0.0000 H       1  UNL1        0.0265
     75 H          41.4386   -0.2249    0.0000 H       1  UNL1        0.0265
     76 H          42.2357   -0.2249    0.0000 H       1  UNL1        0.0265
     77 H          39.7066   -0.2249    0.0000 H       1  UNL1        0.0265
     78 H          40.5036   -0.2249    0.0000 H       1  UNL1        0.0265
     79 H          17.1899   -0.2249    0.0000 H       1  UNL1        0.0265
     80 H          17.9870   -0.2249    0.0000 H       1  UNL1        0.0265
     81 H          43.1017    1.2250    0.0000 H       1  UNL1        0.0265
     82 H          42.3047    1.2250    0.0000 H       1  UNL1        0.0265
     83 H          11.9938   -0.2249    0.0000 H       1  UNL1        0.0265
     84 H          12.7908   -0.2249    0.0000 H       1  UNL1        0.0265
     85 H          39.6376    1.2250    0.0000 H       1  UNL1        0.0265
     86 H          38.8406    1.2250    0.0000 H       1  UNL1        0.0265
     87 H          43.1707   -0.2249    0.0000 H       1  UNL1        0.0265
     88 H          43.9677   -0.2249    0.0000 H       1  UNL1        0.0265
     89 H          18.8530    1.2250    0.0000 H       1  UNL1        0.0265
     90 H          18.0560    1.2250    0.0000 H       1  UNL1        0.0265
     91 H          11.9248    1.2250    0.0000 H       1  UNL1        0.0265
     92 H          11.1278    1.2250    0.0000 H       1  UNL1        0.0265
     93 H          37.9745   -0.2249    0.0000 H       1  UNL1        0.0265
     94 H          38.7716   -0.2249    0.0000 H       1  UNL1        0.0265
     95 H          44.8338    1.2250    0.0000 H       1  UNL1        0.0265
     96 H          44.0367    1.2250    0.0000 H       1  UNL1        0.0265
     97 H          18.9220   -0.2249    0.0000 H       1  UNL1        0.0265
     98 H          19.7190   -0.2249    0.0000 H       1  UNL1        0.0265
     99 H          10.2617   -0.2249    0.0000 H       1  UNL1        0.0265
    100 H          11.0588   -0.2249    0.0000 H       1  UNL1        0.0265
    101 H          37.9056    1.2250    0.0000 H       1  UNL1        0.0265
    102 H          37.1085    1.2250    0.0000 H       1  UNL1        0.0265
    103 H          44.9027   -0.2249    0.0000 H       1  UNL1        0.0265
    104 H          45.6998   -0.2249    0.0000 H       1  UNL1        0.0265
    105 H          20.5851    1.2250    0.0000 H       1  UNL1        0.0265
    106 H          19.7880    1.2250    0.0000 H       1  UNL1        0.0265
    107 H          10.1928    1.2250    0.0000 H       1  UNL1        0.0265
    108 H           9.3957    1.2250    0.0000 H       1  UNL1        0.0265
    109 H          36.2425   -0.2249    0.0000 H       1  UNL1        0.0265
    110 H          37.0395   -0.2249    0.0000 H       1  UNL1        0.0265
    111 H          46.5658    1.2250    0.0000 H       1  UNL1        0.0265
    112 H          45.7688    1.2250    0.0000 H       1  UNL1        0.0265
    113 H          20.6540   -0.2249    0.0000 H       1  UNL1        0.0265
    114 H          21.4511   -0.2249    0.0000 H       1  UNL1        0.0265
    115 H           8.5297   -0.2249    0.0000 H       1  UNL1        0.0265
    116 H           9.3267   -0.2249    0.0000 H       1  UNL1        0.0265
    117 H          36.1735    1.2250    0.0000 H       1  UNL1        0.0265
    118 H          35.3765    1.2250    0.0000 H       1  UNL1        0.0265
    119 H          46.6348   -0.2249    0.0000 H       1  UNL1        0.0265
    120 H          47.4319   -0.2249    0.0000 H       1  UNL1        0.0265
    121 H          22.3171    1.2250    0.0000 H       1  UNL1        0.0265
    122 H          21.5201    1.2250    0.0000 H       1  UNL1        0.0265
    123 H          34.5104   -0.2249    0.0000 H       1  UNL1        0.0265
    124 H          35.3075   -0.2249    0.0000 H       1  UNL1        0.0265
    125 H           8.4607    1.2250    0.0000 H       1  UNL1        0.0265
    126 H           7.6636    1.2250    0.0000 H       1  UNL1        0.0265
    127 H          48.2979    1.2250    0.0000 H       1  UNL1        0.0265
    128 H          47.5008    1.2250    0.0000 H       1  UNL1        0.0265
    129 H          22.3861   -0.2249    0.0000 H       1  UNL1        0.0265
    130 H          23.1831   -0.2249    0.0000 H       1  UNL1        0.0265
    131 H          34.4415    1.2250    0.0000 H       1  UNL1        0.0265
    132 H          33.6444    1.2250    0.0000 H       1  UNL1        0.0265
    133 H           6.7976   -0.2249    0.0000 H       1  UNL1        0.0265
    134 H           7.5947   -0.2249    0.0000 H       1  UNL1        0.0265
    135 H          48.3668   -0.2249    0.0000 H       1  UNL1        0.0265
    136 H          49.1639   -0.2249    0.0000 H       1  UNL1        0.0265
    137 H          24.0492    1.2250    0.0000 H       1  UNL1        0.0265
    138 H          23.2521    1.2250    0.0000 H       1  UNL1        0.0265
    139 H          32.7784   -0.2249    0.0000 H       1  UNL1        0.0265
    140 H          33.5754   -0.2249    0.0000 H       1  UNL1        0.0265
    141 H           6.7287    1.2250    0.0000 H       1  UNL1        0.0265
    142 H           5.9316    1.2250    0.0000 H       1  UNL1        0.0265
    143 H          50.0299    1.2250    0.0000 H       1  UNL1        0.0265
    144 H          49.2329    1.2250    0.0000 H       1  UNL1        0.0265
    145 H          24.1181   -0.2249    0.0000 H       1  UNL1        0.0265
    146 H          24.9152   -0.2249    0.0000 H       1  UNL1        0.0265
    147 H          32.7094    1.2250    0.0000 H       1  UNL1        0.0265
    148 H          31.9124    1.2250    0.0000 H       1  UNL1        0.0265
    149 H           5.0656   -0.2249    0.0000 H       1  UNL1        0.0265
    150 H           5.8626   -0.2249    0.0000 H       1  UNL1        0.0265
    151 H          50.0989   -0.2249    0.0000 H       1  UNL1        0.0265
    152 H          50.8960   -0.2249    0.0000 H       1  UNL1        0.0265
    153 H          25.7812    1.2250    0.0000 H       1  UNL1        0.0265
    154 H          24.9842    1.2250    0.0000 H       1  UNL1        0.0265
    155 H          31.0463   -0.2249    0.0000 H       1  UNL1        0.0266
    156 H          31.8434   -0.2249    0.0000 H       1  UNL1        0.0266
    157 H           4.9966    1.2250    0.0000 H       1  UNL1        0.0265
    158 H           4.1996    1.2250    0.0000 H       1  UNL1        0.0265
    159 H          51.7620    1.2250    0.0000 H       1  UNL1        0.0265
    160 H          50.9649    1.2250    0.0000 H       1  UNL1        0.0265
    161 H          25.8502   -0.2249    0.0000 H       1  UNL1        0.0270
    162 H          26.6472   -0.2249    0.0000 H       1  UNL1        0.0270
    163 H          30.9774    1.2250    0.0000 H       1  UNL1        0.0298
    164 H          30.1803    1.2250    0.0000 H       1  UNL1        0.0298
    165 H           3.3335   -0.2249    0.0000 H       1  UNL1        0.0265
    166 H           4.1306   -0.2249    0.0000 H       1  UNL1        0.0265
    167 H          51.8309   -0.2249    0.0000 H       1  UNL1        0.0265
    168 H          52.6280   -0.2249    0.0000 H       1  UNL1        0.0265
    169 H          27.5133    1.2250    0.0000 H       1  UNL1        0.0377
    170 H          26.7162    1.2250    0.0000 H       1  UNL1        0.0377
    171 H          29.3143   -0.2249    0.0000 H       1  UNL1        0.0697
    172 H          30.1113   -0.2249    0.0000 H       1  UNL1        0.0697
    173 H           3.2646    1.2250    0.0000 H       1  UNL1        0.0263
    174 H           2.4675    1.2250    0.0000 H       1  UNL1        0.0263
    175 H          53.4940    1.2250    0.0000 H       1  UNL1        0.0263
    176 H          52.6970    1.2250    0.0000 H       1  UNL1        0.0263
    177 H           1.6900    0.7869    0.0000 H       1  UNL1        0.0230
    178 H           1.4631   -0.0600    0.0000 H       1  UNL1        0.0230
    179 H           2.3100   -0.2869    0.0000 H       1  UNL1        0.0230
    180 H          53.6515   -0.2869    0.0000 H       1  UNL1        0.0230
    181 H          54.4985   -0.0600    0.0000 H       1  UNL1        0.0230
    182 H          54.2715    0.7869    0.0000 H       1  UNL1        0.0230
@<TRIPOS>BOND
     1     1    57    1
     2     1    60    1
     3     2    60    2
     4     3     4    1
     5     3     5    1
     6     3    63    1
     7     3    64    1
     8     4     6    1
     9     4    65    1
    10     4    66    1
    11     5     7    1
    12     5    67    1
    13     5    68    1
    14     6    11    1
    15     6    69    1
    16     6    70    1
    17     7    13    1
    18     7    71    1
    19     7    72    1
    20     8     9    1
    21     8    10    1
    22     8    73    1
    23     8    74    1
    24     9    12    1
    25     9    75    1
    26     9    76    1
    27    10    14    1
    28    10    77    1
    29    10    78    1
    30    11    16    1
    31    11    79    1
    32    11    80    1
    33    12    15    1
    34    12    81    1
    35    12    82    1
    36    13    17    1
    37    13    83    1
    38    13    84    1
    39    14    18    1
    40    14    85    1
    41    14    86    1
    42    15    19    1
    43    15    87    1
    44    15    88    1
    45    16    20    1
    46    16    89    1
    47    16    90    1
    48    17    21    1
    49    17    91    1
    50    17    92    1
    51    18    22    1
    52    18    93    1
    53    18    94    1
    54    19    23    1
    55    19    95    1
    56    19    96    1
    57    20    24    1
    58    20    97    1
    59    20    98    1
    60    21    25    1
    61    21    99    1
    62    21   100    1
    63    22    26    1
    64    22   101    1
    65    22   102    1
    66    23    27    1
    67    23   103    1
    68    23   104    1
    69    24    28    1
    70    24   105    1
    71    24   106    1
    72    25    29    1
    73    25   107    1
    74    25   108    1
    75    26    30    1
    76    26   109    1
    77    26   110    1
    78    27    31    1
    79    27   111    1
    80    27   112    1
    81    28    32    1
    82    28   113    1
    83    28   114    1
    84    29    34    1
    85    29   115    1
    86    29   116    1
    87    30    33    1
    88    30   117    1
    89    30   118    1
    90    31    35    1
    91    31   119    1
    92    31   120    1
    93    32    36    1
    94    32   121    1
    95    32   122    1
    96    33    37    1
    97    33   123    1
    98    33   124    1
    99    34    38    1
   100    34   125    1
   101    34   126    1
   102    35    39    1
   103    35   127    1
   104    35   128    1
   105    36    40    1
   106    36   129    1
   107    36   130    1
   108    37    41    1
   109    37   131    1
   110    37   132    1
   111    38    42    1
   112    38   133    1
   113    38   134    1
   114    39    43    1
   115    39   135    1
   116    39   136    1
   117    40    44    1
   118    40   137    1
   119    40   138    1
   120    41    45    1
   121    41   139    1
   122    41   140    1
   123    42    46    1
   124    42   141    1
   125    42   142    1
   126    43    47    1
   127    43   143    1
   128    43   144    1
   129    44    48    1
   130    44   145    1
   131    44   146    1
   132    45    49    1
   133    45   147    1
   134    45   148    1
   135    46    50    1
   136    46   149    1
   137    46   150    1
   138    47    51    1
   139    47   151    1
   140    47   152    1
   141    48    52    1
   142    48   153    1
   143    48   154    1
   144    49    53    1
   145    49   155    1
   146    49   156    1
   147    50    54    1
   148    50   157    1
   149    50   158    1
   150    51    55    1
   151    51   159    1
   152    51   160    1
   153    52    56    1
   154    52   161    1
   155    52   162    1
   156    53    57    1
   157    53   163    1
   158    53   164    1
   159    54    58    1
   160    54   165    1
   161    54   166    1
   162    55    59    1
   163    55   167    1
   164    55   168    1
   165    56    60    1
   166    56   169    1
   167    56   170    1
   168    57   171    1
   169    57   172    1
   170    58    61    1
   171    58   173    1
   172    58   174    1
   173    59    62    1
   174    59   175    1
   175    59   176    1
   176    61   177    1
   177    61   178    1
   178    61   179    1
   179    62   180    1
   180    62   181    1
   181    62   182    1
