@<TRIPOS>MOLECULE
IMPHY016418
 16 16 0 0 0
SMALL
GASTEIGER

@<TRIPOS>ATOM
      1 O           2.8660    1.8450    0.0000 O.3     1  UNL1       -0.3877
      2 O           2.8660   -2.1550    0.0000 O.2     1  UNL1       -0.2927
      3 C           2.0000    0.3450    0.0000 C.3     1  UNL1       -0.0162
      4 C           2.8660    0.8450    0.0000 C.3     1  UNL1        0.0741
      5 C           2.0000   -0.6550    0.0000 C.3     1  UNL1        0.0125
      6 C           3.7320    0.3450    0.0000 C.2     1  UNL1       -0.0526
      7 C           2.8660   -1.1550    0.0000 C.2     1  UNL1        0.1560
      8 C           3.7320   -0.6550    0.0000 C.2     1  UNL1       -0.0207
      9 H           1.7880    0.9276    0.0000 H       1  UNL1        0.0297
     10 H           1.3894    0.2373    0.0000 H       1  UNL1        0.0297
     11 H           3.4030    1.1550    0.0000 H       1  UNL1        0.0638
     12 H           1.3894   -0.5473    0.0000 H       1  UNL1        0.0346
     13 H           1.7880   -1.2376    0.0000 H       1  UNL1        0.0346
     14 H           4.2690    0.6550    0.0000 H       1  UNL1        0.0598
     15 H           4.2690   -0.9650    0.0000 H       1  UNL1        0.0650
     16 H           3.4030    2.1550    0.0000 H       1  UNL1        0.2102
@<TRIPOS>BOND
     1     1     4    1
     2     1    16    1
     3     2     7    2
     4     3     4    1
     5     3     5    1
     6     3     9    1
     7     3    10    1
     8     4     6    1
     9     4    11    1
    10     5     7    1
    11     5    12    1
    12     5    13    1
    13     6     8    2
    14     6    14    1
    15     7     8    1
    16     8    15    1
