@<TRIPOS>MOLECULE
IMPHY001698
 179 190 0 0 0
SMALL
GASTEIGER

@<TRIPOS>ATOM
      1 O          14.5969   -2.7262    0.0000 O.3     1  UNL1       -0.3281
      2 O          12.0588   -3.6180    0.0000 O.3     1  UNL1       -0.4512
      3 O          13.0625   -5.3844    0.0000 O.3     1  UNL1       -0.4500
      4 O          15.1108   -5.3923    0.0000 O.3     1  UNL1       -0.4476
      5 O           6.8671    4.4321    0.0000 O.3     1  UNL1       -0.3292
      6 O          16.1281   -3.6144    0.0000 O.3     1  UNL1       -0.4275
      7 O           6.8671    1.4321    0.0000 O.3     1  UNL1       -0.4512
      8 O           8.5991    2.4321    0.0000 O.3     1  UNL1       -0.4476
      9 O          12.0852   -1.6271    0.0000 O.3     1  UNL1       -0.4584
     10 O           5.1350    2.4321    0.0000 O.3     1  UNL1       -0.3853
     11 O           8.5991    4.4321    0.0000 O.3     1  UNL1       -0.4275
     12 O           5.1350    5.4321    0.0000 O.3     1  UNL1       -0.4584
     13 O          10.3746   -2.6042    0.0000 O.2     1  UNL1       -0.2449
     14 O          14.5558   -6.2619    0.0000 O.2     1  UNL1       -0.2449
     15 O          16.6108   -4.5262    0.0000 O.2     1  UNL1       -0.2449
     16 O          16.1147   -1.8825    0.0000 O.2     1  UNL1       -0.2449
     17 O          12.0891   -2.6270    0.0000 O.2     1  UNL1       -0.2449
     18 O           9.4651    0.9321    0.0000 O.3     1  UNL1       -0.4476
     19 O           9.4651    3.9321    0.0000 O.2     1  UNL1       -0.2448
     20 O           5.1350    1.4321    0.0000 O.2     1  UNL1       -0.2449
     21 O           7.7331    5.9321    0.0000 O.2     1  UNL1       -0.2449
     22 O           7.7227   -3.1408    0.0000 O.3     1  UNL1       -0.5028
     23 O           7.7189   -2.1470    0.0000 O.3     1  UNL1       -0.5028
     24 O           9.4926   -6.2063    0.0000 O.3     1  UNL1       -0.5032
     25 O           3.4030    5.4321    0.0000 O.2     1  UNL1       -0.2450
     26 O           7.7148   -5.1890    0.0000 O.3     1  UNL1       -0.5009
     27 O           7.6952   -0.0989    0.0000 O.3     1  UNL1       -0.5009
     28 O          10.5425   -7.9631    0.0000 O.3     1  UNL1       -0.5032
     29 O          13.5291   -9.7182    0.0000 O.3     1  UNL1       -0.5032
     30 O          11.1972   -0.0679    0.0000 O.3     1  UNL1       -0.5008
     31 O          16.1108   -8.8564    0.0000 O.3     1  UNL1       -0.5032
     32 O          19.1108   -7.1243    0.0000 O.3     1  UNL1       -0.5032
     33 O          11.5291   -9.7028    0.0000 O.3     1  UNL1       -0.5009
     34 O          12.9292    2.9321    0.0000 O.3     1  UNL1       -0.5032
     35 O          19.6346   -4.4535    0.0000 O.3     1  UNL1       -0.5032
     36 O          19.6079   -0.9895    0.0000 O.3     1  UNL1       -0.5032
     37 O          18.1108   -8.8564    0.0000 O.3     1  UNL1       -0.5009
     38 O          12.9292    0.9321    0.0000 O.3     1  UNL1       -0.5008
     39 O           4.2690   -2.0679    0.0000 O.3     1  UNL1       -0.5032
     40 O           2.5369    0.9321    0.0000 O.3     1  UNL1       -0.5032
     41 O          20.6213   -2.7138    0.0000 O.3     1  UNL1       -0.5009
     42 O           2.5370   -1.0680    0.0000 O.3     1  UNL1       -0.5009
     43 O          10.3312    8.4321    0.0000 O.3     1  UNL1       -0.5032
     44 O          12.0632    5.4321    0.0000 O.3     1  UNL1       -0.5032
     45 O          12.0632    7.4321    0.0000 O.3     1  UNL1       -0.5009
     46 O           2.5369    8.9321    0.0000 O.3     1  UNL1       -0.5032
     47 O           6.0010    8.9321    0.0000 O.3     1  UNL1       -0.5032
     48 O           4.2690    9.9321    0.0000 O.3     1  UNL1       -0.5009
     49 C          13.0588   -3.6142    0.0000 C.3     1  UNL1        0.1730
     50 C          13.5691   -4.5222    0.0000 C.3     1  UNL1        0.1851
     51 C          13.5554   -2.7462    0.0000 C.3     1  UNL1        0.1371
     52 C          14.6108   -4.5262    0.0000 C.3     1  UNL1        0.2053
     53 C          15.1281   -3.6222    0.0000 C.3     1  UNL1        0.2465
     54 C           6.8671    2.4321    0.0000 C.3     1  UNL1        0.1742
     55 C           6.0010    2.9321    0.0000 C.3     1  UNL1        0.1251
     56 C           7.7331    2.9321    0.0000 C.3     1  UNL1        0.2042
     57 C           6.0010    3.9321    0.0000 C.3     1  UNL1        0.1261
     58 C          13.0521   -1.8822    0.0000 C.3     1  UNL1        0.1226
     59 C           7.7331    3.9321    0.0000 C.3     1  UNL1        0.2464
     60 C           5.1350    4.4321    0.0000 C.3     1  UNL1        0.1216
     61 C          11.2250   -3.1304    0.0000 C.2     1  UNL1        0.3405
     62 C          13.5558   -6.2542    0.0000 C.2     1  UNL1        0.3399
     63 C          16.1108   -5.3923    0.0000 C.2     1  UNL1        0.3400
     64 C          10.3609   -3.6337    0.0000 C.ar    1  UNL1        0.0740
     65 C          16.6214   -2.7446    0.0000 C.2     1  UNL1        0.3417
     66 C          11.2211   -2.1304    0.0000 C.2     1  UNL1        0.3401
     67 C           9.4929   -3.1371    0.0000 C.ar    1  UNL1        0.0458
     68 C           9.4651    2.9321    0.0000 C.2     1  UNL1        0.3436
     69 C           6.0010    0.9321    0.0000 C.2     1  UNL1        0.3399
     70 C          10.3532   -1.6337    0.0000 C.ar    1  UNL1        0.0740
     71 C           9.4891   -2.1371    0.0000 C.ar    1  UNL1        0.0458
     72 C          13.0491   -7.1164    0.0000 C.ar    1  UNL1        0.0661
     73 C          16.6108   -6.2583    0.0000 C.ar    1  UNL1        0.0661
     74 C           8.5991    5.4321    0.0000 C.2     1  UNL1        0.3417
     75 C          17.6213   -2.7369    0.0000 C.ar    1  UNL1        0.0662
     76 C          10.3809   -4.6752    0.0000 C.ar    1  UNL1       -0.0017
     77 C          10.3312    2.4321    0.0000 C.ar    1  UNL1        0.1085
     78 C           8.5849   -3.6474    0.0000 C.ar    1  UNL1        0.1708
     79 C          10.3652   -0.5922    0.0000 C.ar    1  UNL1       -0.0009
     80 C           5.1351    0.4320    0.0000 C.ar    1  UNL1        0.0661
     81 C           8.5771   -1.6337    0.0000 C.ar    1  UNL1        0.1708
     82 C           4.2690    5.9321    0.0000 C.2     1  UNL1        0.3395
     83 C           9.4651   -0.0679    0.0000 C.ar    1  UNL1        0.1743
     84 C          13.5424   -7.9862    0.0000 C.ar    1  UNL1       -0.0023
     85 C          12.0492   -7.1087    0.0000 C.ar    1  UNL1       -0.0023
     86 C           9.4850   -5.2064    0.0000 C.ar    1  UNL1        0.1628
     87 C          10.3312    1.4321    0.0000 C.ar    1  UNL1        0.1876
     88 C           9.4651    5.9321    0.0000 C.ar    1  UNL1        0.0662
     89 C           8.5809   -4.6890    0.0000 C.ar    1  UNL1        0.2012
     90 C           8.5651   -0.5922    0.0000 C.ar    1  UNL1        0.2021
     91 C          17.6108   -6.2583    0.0000 C.ar    1  UNL1       -0.0023
     92 C          16.1108   -7.1243    0.0000 C.ar    1  UNL1       -0.0023
     93 C          18.1147   -1.8670    0.0000 C.ar    1  UNL1       -0.0023
     94 C          18.1280   -3.5990    0.0000 C.ar    1  UNL1       -0.0023
     95 C          11.1972    2.9321    0.0000 C.ar    1  UNL1        0.0013
     96 C           4.2690    6.9321    0.0000 C.ar    1  UNL1        0.0661
     97 C           4.2690    0.9321    0.0000 C.ar    1  UNL1       -0.0023
     98 C           5.1350   -0.5679    0.0000 C.ar    1  UNL1       -0.0023
     99 C          11.5425   -7.9708    0.0000 C.ar    1  UNL1        0.1628
    100 C          13.0358   -8.8484    0.0000 C.ar    1  UNL1        0.1628
    101 C          11.1972    0.9321    0.0000 C.ar    1  UNL1        0.2060
    102 C          16.6108   -7.9904    0.0000 C.ar    1  UNL1        0.1628
    103 C          18.1108   -7.1243    0.0000 C.ar    1  UNL1        0.1628
    104 C          12.0358   -8.8407    0.0000 C.ar    1  UNL1        0.2006
    105 C          10.3312    5.4321    0.0000 C.ar    1  UNL1       -0.0023
    106 C           9.4651    6.9321    0.0000 C.ar    1  UNL1       -0.0023
    107 C          12.0632    2.4321    0.0000 C.ar    1  UNL1        0.1630
    108 C          19.1280   -3.5913    0.0000 C.ar    1  UNL1        0.1628
    109 C          19.1146   -1.8593    0.0000 C.ar    1  UNL1        0.1628
    110 C          17.6108   -7.9904    0.0000 C.ar    1  UNL1        0.2006
    111 C          12.0632    1.4321    0.0000 C.ar    1  UNL1        0.2044
    112 C           4.2690   -1.0679    0.0000 C.ar    1  UNL1        0.1628
    113 C           3.4030    0.4321    0.0000 C.ar    1  UNL1        0.1628
    114 C          19.6213   -2.7215    0.0000 C.ar    1  UNL1        0.2006
    115 C           5.1350    7.4321    0.0000 C.ar    1  UNL1       -0.0023
    116 C           3.4030    7.4321    0.0000 C.ar    1  UNL1       -0.0023
    117 C           3.4030   -0.5680    0.0000 C.ar    1  UNL1        0.2006
    118 C          10.3312    7.4321    0.0000 C.ar    1  UNL1        0.1628
    119 C          11.1972    5.9321    0.0000 C.ar    1  UNL1        0.1628
    120 C          11.1972    6.9321    0.0000 C.ar    1  UNL1        0.2006
    121 C           3.4030    8.4321    0.0000 C.ar    1  UNL1        0.1628
    122 C           5.1350    8.4321    0.0000 C.ar    1  UNL1        0.1628
    123 C           4.2690    8.9321    0.0000 C.ar    1  UNL1        0.2006
    124 H          12.6310   -4.3487    0.0000 H       1  UNL1        0.0801
    125 H          12.9492   -4.5162    0.0000 H       1  UNL1        0.0813
    126 H          13.9719   -2.0053    0.0000 H       1  UNL1        0.0670
    127 H          14.2997   -5.0626    0.0000 H       1  UNL1        0.0837
    128 H          15.4329   -3.0823    0.0000 H       1  UNL1        0.1098
    129 H           6.3301    2.1221    0.0000 H       1  UNL1        0.0801
    130 H           6.0010    2.3121    0.0000 H       1  UNL1        0.0659
    131 H           7.7331    2.3121    0.0000 H       1  UNL1        0.0837
    132 H           6.0010    4.5521    0.0000 H       1  UNL1        0.0659
    133 H          13.6504   -1.7194    0.0000 H       1  UNL1        0.0725
    134 H          13.0497   -1.2622    0.0000 H       1  UNL1        0.0725
    135 H           7.7331    4.5521    0.0000 H       1  UNL1        0.1098
    136 H           4.5244    4.5398    0.0000 H       1  UNL1        0.0725
    137 H           4.9230    3.8495    0.0000 H       1  UNL1        0.0725
    138 H           4.5981    2.7421    0.0000 H       1  UNL1        0.2101
    139 H          10.9226   -4.9768    0.0000 H       1  UNL1        0.0664
    140 H          10.9045   -0.2863    0.0000 H       1  UNL1        0.0664
    141 H          14.1624   -7.9910    0.0000 H       1  UNL1        0.0663
    142 H          11.7433   -6.5694    0.0000 H       1  UNL1        0.0663
    143 H          17.9208   -5.7214    0.0000 H       1  UNL1        0.0663
    144 H          15.4908   -7.1243    0.0000 H       1  UNL1        0.0663
    145 H          17.8005   -1.3325    0.0000 H       1  UNL1        0.0663
    146 H          17.8222   -4.1384    0.0000 H       1  UNL1        0.0663
    147 H          11.1972    3.5521    0.0000 H       1  UNL1        0.0665
    148 H           4.2690    1.5521    0.0000 H       1  UNL1        0.0663
    149 H           5.6719   -0.8779    0.0000 H       1  UNL1        0.0663
    150 H          10.3312    4.8121    0.0000 H       1  UNL1        0.0663
    151 H           8.9282    7.2421    0.0000 H       1  UNL1        0.0663
    152 H           7.1834   -3.4466    0.0000 H       1  UNL1        0.2923
    153 H           7.1772   -1.8453    0.0000 H       1  UNL1        0.2923
    154 H          10.0320   -6.5122    0.0000 H       1  UNL1        0.2923
    155 H           5.6720    7.1221    0.0000 H       1  UNL1        0.0663
    156 H           2.8660    7.1221    0.0000 H       1  UNL1        0.0663
    157 H           7.7148   -5.8090    0.0000 H       1  UNL1        0.2924
    158 H           7.6904    0.5211    0.0000 H       1  UNL1        0.2924
    159 H          10.2284   -8.4976    0.0000 H       1  UNL1        0.2923
    160 H          14.1491   -9.7230    0.0000 H       1  UNL1        0.2923
    161 H          11.7341   -0.3779    0.0000 H       1  UNL1        0.2924
    162 H          16.4208   -9.3933    0.0000 H       1  UNL1        0.2923
    163 H          19.4208   -7.6613    0.0000 H       1  UNL1        0.2923
    164 H          11.8350  -10.2421    0.0000 H       1  UNL1        0.2924
    165 H          12.9292    3.5521    0.0000 H       1  UNL1        0.2923
    166 H          20.2546   -4.4487    0.0000 H       1  UNL1        0.2923
    167 H          19.2938   -0.4549    0.0000 H       1  UNL1        0.2923
    168 H          18.7308   -8.8564    0.0000 H       1  UNL1        0.2924
    169 H          13.4662    1.2421    0.0000 H       1  UNL1        0.2924
    170 H           3.7320   -2.3779    0.0000 H       1  UNL1        0.2923
    171 H           2.5369    1.5521    0.0000 H       1  UNL1        0.2923
    172 H          20.9271   -2.1745    0.0000 H       1  UNL1        0.2924
    173 H           2.0000   -0.7580    0.0000 H       1  UNL1        0.2924
    174 H           9.7942    8.7421    0.0000 H       1  UNL1        0.2923
    175 H          12.6002    5.7421    0.0000 H       1  UNL1        0.2923
    176 H          12.0632    8.0521    0.0000 H       1  UNL1        0.2924
    177 H           2.0000    8.6221    0.0000 H       1  UNL1        0.2923
    178 H           6.0010    9.5521    0.0000 H       1  UNL1        0.2923
    179 H           3.7320   10.2421    0.0000 H       1  UNL1        0.2924
@<TRIPOS>BOND
     1     1    51    1
     2     1    53    1
     3     2    49    1
     4     2    61    1
     5    50     3    1
     6     3    62    1
     7    52     4    1
     8     4    63    1
     9     5    57    1
    10     5    59    1
    11    53     6    1
    12     6    65    1
    13    54     7    1
    14     7    69    1
    15    56     8    1
    16     8    68    1
    17     9    58    1
    18     9    66    1
    19    55    10    1
    20    10   138    1
    21    59    11    1
    22    11    74    1
    23    12    60    1
    24    12    82    1
    25    13    61    2
    26    14    62    2
    27    15    63    2
    28    16    65    2
    29    17    66    2
    30    18    83    1
    31    18    87    1
    32    19    68    2
    33    20    69    2
    34    21    74    2
    35    22    78    1
    36    22   152    1
    37    23    81    1
    38    23   153    1
    39    24    86    1
    40    24   154    1
    41    25    82    2
    42    26    89    1
    43    26   157    1
    44    27    90    1
    45    27   158    1
    46    28    99    1
    47    28   159    1
    48    29   100    1
    49    29   160    1
    50    30   101    1
    51    30   161    1
    52    31   102    1
    53    31   162    1
    54    32   103    1
    55    32   163    1
    56    33   104    1
    57    33   164    1
    58    34   107    1
    59    34   165    1
    60    35   108    1
    61    35   166    1
    62    36   109    1
    63    36   167    1
    64    37   110    1
    65    37   168    1
    66    38   111    1
    67    38   169    1
    68    39   112    1
    69    39   170    1
    70    40   113    1
    71    40   171    1
    72    41   114    1
    73    41   172    1
    74    42   117    1
    75    42   173    1
    76    43   118    1
    77    43   174    1
    78    44   119    1
    79    44   175    1
    80    45   120    1
    81    45   176    1
    82    46   121    1
    83    46   177    1
    84    47   122    1
    85    47   178    1
    86    48   123    1
    87    48   179    1
    88    49    50    1
    89    49    51    1
    90    49   124    1
    91    50    52    1
    92    50   125    1
    93    51    58    1
    94    51   126    1
    95    52    53    1
    96    52   127    1
    97    53   128    1
    98    54    55    1
    99    54    56    1
   100    54   129    1
   101    55    57    1
   102    55   130    1
   103    56    59    1
   104    56   131    1
   105    57    60    1
   106    57   132    1
   107    58   133    1
   108    58   134    1
   109    59   135    1
   110    60   136    1
   111    60   137    1
   112    61    64    1
   113    62    72    1
   114    63    73    1
   115    64    67   ar
   116    64    76   ar
   117    65    75    1
   118    66    70    1
   119    67    71    1
   120    67    78   ar
   121    68    77    1
   122    69    80    1
   123    70    71   ar
   124    70    79   ar
   125    71    81   ar
   126    72    84   ar
   127    72    85   ar
   128    73    91   ar
   129    73    92   ar
   130    74    88    1
   131    75    93   ar
   132    75    94   ar
   133    76    86   ar
   134    76   139    1
   135    77    87   ar
   136    77    95   ar
   137    78    89   ar
   138    79    83   ar
   139    79   140    1
   140    80    97   ar
   141    80    98   ar
   142    81    90   ar
   143    82    96    1
   144    83    90   ar
   145    84   100   ar
   146    84   141    1
   147    85    99   ar
   148    85   142    1
   149    86    89   ar
   150    87   101   ar
   151    88   105   ar
   152    88   106   ar
   153    91   103   ar
   154    91   143    1
   155    92   102   ar
   156    92   144    1
   157    93   109   ar
   158    93   145    1
   159    94   108   ar
   160    94   146    1
   161    95   107   ar
   162    95   147    1
   163    96   115   ar
   164    96   116   ar
   165    97   113   ar
   166    97   148    1
   167    98   112   ar
   168    98   149    1
   169    99   104   ar
   170   100   104   ar
   171   101   111   ar
   172   102   110   ar
   173   103   110   ar
   174   105   119   ar
   175   105   150    1
   176   106   118   ar
   177   106   151    1
   178   107   111   ar
   179   108   114   ar
   180   109   114   ar
   181   112   117   ar
   182   113   117   ar
   183   115   122   ar
   184   115   155    1
   185   116   121   ar
   186   116   156    1
   187   118   120   ar
   188   119   120   ar
   189   121   123   ar
   190   122   123   ar
