@<TRIPOS>MOLECULE
IMPHY000483
 37 40 0 0 0
SMALL
GASTEIGER

@<TRIPOS>ATOM
      1 C           5.0465    5.1611    0.0000 C.ar    1  UNL1        0.1879
      2 C           5.0465    4.1322    0.0000 C.ar    1  UNL1        0.1107
      3 C           4.1595    5.6743    0.0000 C.ar    1  UNL1        0.2069
      4 O           5.9363    5.6715    0.0000 O.2     1  UNL1       -0.4499
      5 C           4.1595    3.6218    0.0000 C.ar    1  UNL1        0.1506
      6 C           5.9363    3.6218    0.0000 C.ar    1  UNL1        0.2047
      7 C           3.2697    5.1611    0.0000 C.ar    1  UNL1        0.1785
      8 O           4.1295    6.6513    0.0000 O.3     1  UNL1       -0.4654
      9 C           6.8315    5.1611    0.0000 C.ar    1  UNL1        0.1516
     10 O           4.1868    2.7976    0.0000 O.3     1  UNL1       -0.4502
     11 C           3.2697    4.1376    0.0000 C.ar    1  UNL1        0.0773
     12 C           6.8315    4.1322    0.0000 C.ar    1  UNL1        0.0798
     13 O           5.9363    2.6474    0.0000 O.2     1  UNL1       -0.2862
     14 O           2.5246    5.6415    0.0000 O.3     1  UNL1       -0.4682
     15 C           3.5263    7.3582    0.0000 C.3     1  UNL1        0.2528
     16 C           7.7212    5.7507    0.0000 C.ar    1  UNL1        0.0716
     17 C           3.5017    2.3117    0.0000 C.3     1  UNL1        0.3218
     18 C           1.4929    5.6415    0.0000 C.3     1  UNL1        0.2526
     19 C           7.7131    6.8042    0.0000 C.ar    1  UNL1        0.1752
     20 C           8.6383    5.2294    0.0000 C.ar    1  UNL1        0.0063
     21 C           3.5208    1.3728    0.0000 C.3     1  UNL1        0.2542
     22 O           2.6775    2.7648    0.0000 O.3     1  UNL1       -0.3157
     23 C           8.6274    7.3391    0.0000 C.ar    1  UNL1        0.1725
     24 O           6.8151    7.4156    0.0000 O.3     1  UNL1       -0.4683
     25 C           9.5526    5.7616    0.0000 C.ar    1  UNL1        0.0034
     26 C           2.7157    0.8870    0.0000 C.3     1  UNL1        0.2211
     27 O           4.5034    1.0399    0.0000 O.3     1  UNL1       -0.2135
     28 C           1.8778    2.2790    0.0000 C.3     1  UNL1        0.1846
     29 C           9.5444    6.8206    0.0000 C.ar    1  UNL1        0.0401
     30 O           8.6465    8.3626    0.0000 O.3     1  UNL1       -0.4684
     31 C           6.8424    8.4036    0.0000 C.3     1  UNL1        0.2526
     32 C           1.8914    1.3428    0.0000 C.3     1  UNL1        0.2145
     33 O           2.7539    0.0000    0.0000 O.3     1  UNL1       -0.2173
     34 C           0.9744    2.8358    0.0000 C.3     1  UNL1        0.2142
     35 C           9.3452    9.3124    0.0000 C.3     1  UNL1        0.2526
     36 O           1.1436    0.7396    0.0000 O.3     1  UNL1       -0.2176
     37 O           0.0000    2.8358    0.0000 O.3     1  UNL1       -0.2176
@<TRIPOS>BOND
     1     1     2   ar
     2     1     3   ar
     3     1     4   ar
     4     2     5   ar
     5     2     6   ar
     6     3     7   ar
     7     3     8    1
     8     4     9   ar
     9     5    10    1
    10     5    11   ar
    11     6    12   ar
    12     6    13    2
    13     7    11   ar
    14     7    14    1
    15     8    15    1
    16     9    12   ar
    17     9    16    1
    18    14    18    1
    19    16    19   ar
    20    16    20   ar
    21    17    10    1
    22    17    21    1
    23    17    22    1
    24    19    23   ar
    25    19    24    1
    26    20    25   ar
    27    21    26    1
    28    21    27    1
    29    22    28    1
    30    23    29   ar
    31    23    30    1
    32    24    31    1
    33    25    29   ar
    34    26    32    1
    35    26    33    1
    36    28    32    1
    37    28    34    1
    38    30    35    1
    39    32    36    1
    40    34    37    1
