@<TRIPOS>MOLECULE
IMPHY015788
 78 81 0 0 0
SMALL
GASTEIGER

@<TRIPOS>ATOM
      1 O           2.5357   -3.1598    0.0000 O.3     1  UNL1       -0.3915
      2 C           7.9288   -0.1074    0.0000 C.3     1  UNL1       -0.0196
      3 C           7.9288   -1.1074    0.0000 C.3     1  UNL1       -0.0051
      4 C           8.8750    0.1973    0.0000 C.3     1  UNL1       -0.0322
      5 C           7.0628   -1.6074    0.0000 C.2     1  UNL1       -0.0633
      6 C           5.2868   -1.6143    0.0000 C.3     1  UNL1       -0.0076
      7 C           8.8750   -1.4122    0.0000 C.3     1  UNL1       -0.0431
      8 C           6.1968   -1.1074    0.0000 C.2     1  UNL1       -0.0636
      9 C           7.0628    0.3926    0.0000 C.3     1  UNL1       -0.0429
     10 C           9.4586   -0.6074    0.0000 C.3     1  UNL1       -0.0486
     11 C           5.2787   -2.6559    0.0000 C.3     1  UNL1       -0.0267
     12 C           6.1968   -0.1074    0.0000 C.3     1  UNL1       -0.0304
     13 C           7.0789   -2.6489    0.0000 C.3     1  UNL1       -0.0306
     14 C           9.1857    1.1478    0.0000 C.3     1  UNL1       -0.0402
     15 C           6.1808   -3.1767    0.0000 C.3     1  UNL1       -0.0454
     16 C           7.9288    0.8926    0.0000 C.3     1  UNL1       -0.0585
     17 C           7.9288   -2.1074    0.0000 C.3     1  UNL1       -0.0553
     18 C           4.3433   -3.2056    0.0000 C.3     1  UNL1       -0.0142
     19 C           4.3599   -1.0502    0.0000 C.3     1  UNL1       -0.0413
     20 C           5.2945   -0.6143    0.0000 C.3     1  UNL1       -0.0556
     21 C           3.4037   -2.6631    0.0000 C.3     1  UNL1        0.0581
     22 C           3.4120   -1.5782    0.0000 C.3     1  UNL1       -0.0258
     23 C          10.1642    1.3540    0.0000 C.3     1  UNL1       -0.0467
     24 C           8.5179    1.8921    0.0000 C.3     1  UNL1       -0.0621
     25 C           4.3472   -4.2056    0.0000 C.3     1  UNL1       -0.0598
     26 C          10.4749    2.3046    0.0000 C.3     1  UNL1       -0.0343
     27 C          11.4534    2.5108    0.0000 C.2     1  UNL1       -0.0853
     28 C          11.7640    3.4613    0.0000 C.2     1  UNL1       -0.0796
     29 C          12.7425    3.6675    0.0000 C.3     1  UNL1       -0.0440
     30 C          11.0962    4.2056    0.0000 C.3     1  UNL1       -0.0440
     31 H           9.7148    0.3292    0.0000 H       1  UNL1        0.0309
     32 H           8.6240   -1.9791    0.0000 H       1  UNL1        0.0274
     33 H           9.4124   -1.7214    0.0000 H       1  UNL1        0.0274
     34 H           7.4613    0.8675    0.0000 H       1  UNL1        0.0274
     35 H           6.6643    0.8675    0.0000 H       1  UNL1        0.0274
     36 H           9.9195   -1.0222    0.0000 H       1  UNL1        0.0268
     37 H           9.9195   -0.1927    0.0000 H       1  UNL1        0.0268
     38 H           5.2820   -3.5059    0.0000 H       1  UNL1        0.0313
     39 H           5.9847    0.4752    0.0000 H       1  UNL1        0.0310
     40 H           5.5862   -0.2151    0.0000 H       1  UNL1        0.0310
     41 H           7.2969   -3.2293    0.0000 H       1  UNL1        0.0310
     42 H           7.6880   -2.5334    0.0000 H       1  UNL1        0.0310
     43 H           9.3783    1.7371    0.0000 H       1  UNL1        0.0301
     44 H           5.7835   -3.6527    0.0000 H       1  UNL1        0.0271
     45 H           6.5818   -3.6496    0.0000 H       1  UNL1        0.0271
     46 H           8.5488    0.8926    0.0000 H       1  UNL1        0.0235
     47 H           7.9288    1.5126    0.0000 H       1  UNL1        0.0235
     48 H           7.3088    0.8926    0.0000 H       1  UNL1        0.0235
     49 H           7.3088   -2.1074    0.0000 H       1  UNL1        0.0238
     50 H           7.9288   -2.7274    0.0000 H       1  UNL1        0.0238
     51 H           8.5488   -2.1074    0.0000 H       1  UNL1        0.0238
     52 H           3.8070   -3.5166    0.0000 H       1  UNL1        0.0326
     53 H           4.7681   -0.5835    0.0000 H       1  UNL1        0.0274
     54 H           3.9700   -0.5682    0.0000 H       1  UNL1        0.0274
     55 H           5.9145   -0.6191    0.0000 H       1  UNL1        0.0238
     56 H           5.2993    0.0057    0.0000 H       1  UNL1        0.0238
     57 H           4.6745   -0.6095    0.0000 H       1  UNL1        0.0238
     58 H           3.4025   -3.2831    0.0000 H       1  UNL1        0.0596
     59 H           3.2075   -0.9929    0.0000 H       1  UNL1        0.0290
     60 H           2.8004   -1.6795    0.0000 H       1  UNL1        0.0290
     61 H          10.1848    0.7344    0.0000 H       1  UNL1        0.0271
     62 H          10.7780    1.2667    0.0000 H       1  UNL1        0.0271
     63 H           8.9793    2.3062    0.0000 H       1  UNL1        0.0233
     64 H           8.1038    2.3536    0.0000 H       1  UNL1        0.0233
     65 H           8.0564    1.4781    0.0000 H       1  UNL1        0.0233
     66 H           3.7272   -4.2080    0.0000 H       1  UNL1        0.0233
     67 H           4.3496   -4.8256    0.0000 H       1  UNL1        0.0233
     68 H           4.9672   -4.2032    0.0000 H       1  UNL1        0.0233
     69 H          10.4543    2.9242    0.0000 H       1  UNL1        0.0307
     70 H           9.8611    2.3919    0.0000 H       1  UNL1        0.0307
     71 H           2.0000   -2.8477    0.0000 H       1  UNL1        0.2098
     72 H          11.8674    2.0493    0.0000 H       1  UNL1        0.0571
     73 H          12.8704    3.0608    0.0000 H       1  UNL1        0.0274
     74 H          13.3492    3.7954    0.0000 H       1  UNL1        0.0274
     75 H          12.6147    4.2742    0.0000 H       1  UNL1        0.0274
     76 H          11.5577    4.6197    0.0000 H       1  UNL1        0.0274
     77 H          10.6821    4.6671    0.0000 H       1  UNL1        0.0274
     78 H          10.6347    3.7915    0.0000 H       1  UNL1        0.0274
@<TRIPOS>BOND
     1    21     1    1
     2     1    71    1
     3     2     3    1
     4     2     4    1
     5     2     9    1
     6     2    16    1
     7     3     5    1
     8     3     7    1
     9     3    17    1
    10     4    10    1
    11     4    14    1
    12     4    31    1
    13     5     8    2
    14     5    13    1
    15     6     8    1
    16     6    11    1
    17     6    19    1
    18     6    20    1
    19     7    10    1
    20     7    32    1
    21     7    33    1
    22     8    12    1
    23     9    12    1
    24     9    34    1
    25     9    35    1
    26    10    36    1
    27    10    37    1
    28    11    15    1
    29    11    18    1
    30    11    38    1
    31    12    39    1
    32    12    40    1
    33    13    15    1
    34    13    41    1
    35    13    42    1
    36    14    23    1
    37    14    24    1
    38    14    43    1
    39    15    44    1
    40    15    45    1
    41    16    46    1
    42    16    47    1
    43    16    48    1
    44    17    49    1
    45    17    50    1
    46    17    51    1
    47    18    21    1
    48    18    25    1
    49    18    52    1
    50    19    22    1
    51    19    53    1
    52    19    54    1
    53    20    55    1
    54    20    56    1
    55    20    57    1
    56    21    22    1
    57    21    58    1
    58    22    59    1
    59    22    60    1
    60    23    26    1
    61    23    61    1
    62    23    62    1
    63    24    63    1
    64    24    64    1
    65    24    65    1
    66    25    66    1
    67    25    67    1
    68    25    68    1
    69    26    27    1
    70    26    69    1
    71    26    70    1
    72    27    28    2
    73    27    72    1
    74    28    29    1
    75    28    30    1
    76    29    73    1
    77    29    74    1
    78    29    75    1
    79    30    76    1
    80    30    77    1
    81    30    78    1
