@<TRIPOS>MOLECULE
IMPHY010587
 36 38 0 0 0
SMALL
GASTEIGER

@<TRIPOS>ATOM
      1 O           6.2621    1.9328    0.0000 O.3     1  UNL1       -0.3567
      2 O           5.3490    0.3588    0.0000 O.2     1  UNL1       -0.2890
      3 O           2.5836   -0.3724    0.0000 O.2     1  UNL1       -0.4665
      4 C           6.2619    0.9324    0.0000 C.3     1  UNL1        0.1013
      5 C           5.3958    1.4324    0.0000 C.3     1  UNL1        0.1504
      6 C           6.2619   -0.0676    0.0000 C.3     1  UNL1       -0.0177
      7 C           7.1279    0.4324    0.0000 C.3     1  UNL1       -0.0329
      8 C           4.5298    0.9324    0.0000 C.2     1  UNL1        0.1980
      9 C           6.2619   -1.0676    0.0000 C.3     1  UNL1       -0.0318
     10 C           3.5298    0.9324    0.0000 C.ar    1  UNL1        0.0642
     11 C           5.3958   -1.5676    0.0000 C.2     1  UNL1       -0.0845
     12 C           3.5298   -0.0676    0.0000 C.ar    1  UNL1        0.1196
     13 C           4.5298   -0.0676    0.0000 C.3     1  UNL1        0.0271
     14 C           4.5298   -1.0676    0.0000 C.2     1  UNL1       -0.0693
     15 C           2.5836    1.2371    0.0000 C.ar    1  UNL1       -0.0019
     16 C           2.0000    0.4324    0.0000 C.ar    1  UNL1        0.0957
     17 C           3.6638   -1.5676    0.0000 C.3     1  UNL1       -0.0434
     18 C           2.2729    2.1876    0.0000 C.3     1  UNL1       -0.0360
     19 H           4.9708    2.1684    0.0000 H       1  UNL1        0.0709
     20 H           6.7988   -0.3776    0.0000 H       1  UNL1        0.0297
     21 H           5.6419   -0.0676    0.0000 H       1  UNL1        0.0297
     22 H           6.8179   -0.1046    0.0000 H       1  UNL1        0.0258
     23 H           7.6648    0.1224    0.0000 H       1  UNL1        0.0258
     24 H           7.4379    0.9693    0.0000 H       1  UNL1        0.0258
     25 H           6.4739   -1.6502    0.0000 H       1  UNL1        0.0308
     26 H           6.8725   -0.9600    0.0000 H       1  UNL1        0.0308
     27 H           5.3958   -2.1876    0.0000 H       1  UNL1        0.0572
     28 H           5.1498   -0.0676    0.0000 H       1  UNL1        0.0389
     29 H           4.5298    0.5524    0.0000 H       1  UNL1        0.0389
     30 H           1.3800    0.4324    0.0000 H       1  UNL1        0.1032
     31 H           3.3538   -1.0307    0.0000 H       1  UNL1        0.0274
     32 H           3.1269   -1.8776    0.0000 H       1  UNL1        0.0274
     33 H           3.9738   -2.1046    0.0000 H       1  UNL1        0.0274
     34 H           2.8623    2.3802    0.0000 H       1  UNL1        0.0279
     35 H           2.0803    2.7769    0.0000 H       1  UNL1        0.0279
     36 H           1.6836    1.9950    0.0000 H       1  UNL1        0.0279
@<TRIPOS>BOND
     1     1     4    1
     2     1     5    1
     3     2     8    2
     4     3    12   ar
     5     3    16   ar
     6     4     5    1
     7     4     6    1
     8     4     7    1
     9     5     8    1
    10     5    19    1
    11     6     9    1
    12     6    20    1
    13     6    21    1
    14     7    22    1
    15     7    23    1
    16     7    24    1
    17     8    10    1
    18     9    11    1
    19     9    25    1
    20     9    26    1
    21    10    12   ar
    22    10    15   ar
    23    11    14    2
    24    11    27    1
    25    12    13    1
    26    13    14    1
    27    13    28    1
    28    13    29    1
    29    14    17    1
    30    15    16   ar
    31    15    18    1
    32    16    30    1
    33    17    31    1
    34    17    32    1
    35    17    33    1
    36    18    34    1
    37    18    35    1
    38    18    36    1
