@<TRIPOS>MOLECULE
IMPHY001621
 34 33 0 0 0
SMALL
GASTEIGER

@<TRIPOS>ATOM
      1 O           2.5369   -0.9050    0.0000 O.3     1  UNL1       -0.3866
      2 O           4.2690    1.0950    0.0000 O.3     1  UNL1       -0.3887
      3 O           7.7331    1.0950    0.0000 O.3     1  UNL1       -0.3852
      4 O           9.4651    0.0950    0.0000 O.3     1  UNL1       -0.3921
      5 C           3.4030   -0.4050    0.0000 C.3     1  UNL1        0.0865
      6 C           4.2690    0.0950    0.0000 C.3     1  UNL1        0.0867
      7 C           5.1350   -0.4050    0.0000 C.3     1  UNL1       -0.0056
      8 C           2.9030    0.4610    0.0000 C.3     1  UNL1       -0.0339
      9 C           3.9030   -1.2710    0.0000 C.3     1  UNL1       -0.0339
     10 C           6.0010    0.0950    0.0000 C.2     1  UNL1       -0.0800
     11 C           6.8671   -0.4050    0.0000 C.2     1  UNL1       -0.0462
     12 C           7.7331    0.0950    0.0000 C.3     1  UNL1        0.0990
     13 C           6.8671   -1.4050    0.0000 C.3     1  UNL1       -0.0413
     14 C           8.5991   -0.4050    0.0000 C.3     1  UNL1        0.0740
     15 H           4.8059    0.4050    0.0000 H       1  UNL1        0.0625
     16 H           4.7365   -0.8799    0.0000 H       1  UNL1        0.0333
     17 H           5.5335   -0.8799    0.0000 H       1  UNL1        0.0333
     18 H           3.3660   -1.5810    0.0000 H       1  UNL1        0.0258
     19 H           4.2130   -1.8080    0.0000 H       1  UNL1        0.0258
     20 H           4.4399   -0.9610    0.0000 H       1  UNL1        0.0258
     21 H           3.4399    0.7710    0.0000 H       1  UNL1        0.0258
     22 H           2.5930    0.9980    0.0000 H       1  UNL1        0.0258
     23 H           2.3660    0.1510    0.0000 H       1  UNL1        0.0258
     24 H           6.0010    0.7150    0.0000 H       1  UNL1        0.0573
     25 H           8.2700    0.4050    0.0000 H       1  UNL1        0.0663
     26 H           2.0000   -0.5950    0.0000 H       1  UNL1        0.2102
     27 H           4.8059    1.4050    0.0000 H       1  UNL1        0.2099
     28 H           6.2471   -1.4050    0.0000 H       1  UNL1        0.0275
     29 H           6.8671   -2.0250    0.0000 H       1  UNL1        0.0275
     30 H           7.4871   -1.4050    0.0000 H       1  UNL1        0.0275
     31 H           8.2006   -0.8799    0.0000 H       1  UNL1        0.0586
     32 H           8.9976   -0.8799    0.0000 H       1  UNL1        0.0586
     33 H           8.2700    1.4050    0.0000 H       1  UNL1        0.2103
     34 H          10.0021   -0.2150    0.0000 H       1  UNL1        0.2095
@<TRIPOS>BOND
     1     1     5    1
     2     1    26    1
     3     6     2    1
     4     2    27    1
     5    12     3    1
     6     3    33    1
     7     4    14    1
     8     4    34    1
     9     5     6    1
    10     5     8    1
    11     5     9    1
    12     6     7    1
    13     6    15    1
    14     7    10    1
    15     7    16    1
    16     7    17    1
    17     8    21    1
    18     8    22    1
    19     8    23    1
    20     9    18    1
    21     9    19    1
    22     9    20    1
    23    10    11    2
    24    10    24    1
    25    11    12    1
    26    11    13    1
    27    12    14    1
    28    12    25    1
    29    13    28    1
    30    13    29    1
    31    13    30    1
    32    14    31    1
    33    14    32    1
