@<TRIPOS>MOLECULE
IMPHY014310
 83 88 0 0 0
SMALL
GASTEIGER

@<TRIPOS>ATOM
      1 O          10.4562   -0.4204    0.0000 O.3     1  UNL1       -0.3702
      2 O           2.5381    2.0716    0.0000 O.3     1  UNL1       -0.3912
      3 O          13.0526   -0.6388    0.0000 O.3     1  UNL1       -0.3866
      4 C           6.0682    0.0475    0.0000 C.3     1  UNL1       -0.0194
      5 C           5.2022    0.5475    0.0000 C.3     1  UNL1       -0.0193
      6 C           5.2020   -0.4530    0.0000 C.3     1  UNL1       -0.0401
      7 C           6.9343    0.5475    0.0000 C.3     1  UNL1       -0.0288
      8 C           5.2022    1.5475    0.0000 C.3     1  UNL1       -0.0273
      9 C           7.8443    0.0406    0.0000 C.3     1  UNL1       -0.0206
     10 C           6.0522   -0.9940    0.0000 C.3     1  UNL1       -0.0460
     11 C           7.8523   -1.0010    0.0000 C.3     1  UNL1       -0.0209
     12 C           4.3083    0.0128    0.0000 C.3     1  UNL1       -0.0442
     13 C           6.9343    1.5475    0.0000 C.3     1  UNL1       -0.0489
     14 C           6.9502   -1.5218    0.0000 C.3     1  UNL1       -0.0462
     15 C           6.0682    2.0475    0.0000 C.3     1  UNL1       -0.0488
     16 C           4.3083    2.0821    0.0000 C.3     1  UNL1       -0.0056
     17 C           8.8403   -1.3108    0.0000 C.3     1  UNL1       -0.0062
     18 C           8.8274    0.3656    0.0000 C.3     1  UNL1       -0.0201
     19 C           9.4418   -0.4679    0.0000 C.3     1  UNL1        0.0633
     20 C           3.4022    0.5267    0.0000 C.3     1  UNL1       -0.0258
     21 C           3.4022    1.5683    0.0000 C.3     1  UNL1        0.0606
     22 C           7.8366    1.0406    0.0000 C.3     1  UNL1       -0.0587
     23 C           7.8600   -2.0009    0.0000 C.3     1  UNL1       -0.0587
     24 C           9.1255   -2.2855    0.0000 C.3     1  UNL1       -0.0381
     25 C           3.8183    2.9539    0.0000 C.3     1  UNL1       -0.0572
     26 C           4.8183    2.9423    0.0000 C.3     1  UNL1       -0.0572
     27 C          10.0643   -2.6728    0.0000 C.3     1  UNL1       -0.0477
     28 C           8.3816   -2.9539    0.0000 C.3     1  UNL1       -0.0621
     29 C          11.1279   -1.1822    0.0000 C.3     1  UNL1        0.0871
     30 C          10.9538   -2.1828    0.0000 C.3     1  UNL1       -0.0236
     31 C          12.0903   -0.9105    0.0000 C.3     1  UNL1        0.0865
     32 C          12.3620   -1.8729    0.0000 C.3     1  UNL1       -0.0339
     33 C          11.8186    0.0519    0.0000 C.3     1  UNL1       -0.0339
     34 H           4.5914   -0.5606    0.0000 H       1  UNL1        0.0276
     35 H           5.4141   -1.0356    0.0000 H       1  UNL1        0.0276
     36 H           7.6671    0.9781    0.0000 H       1  UNL1        0.0312
     37 H           5.2088    2.3974    0.0000 H       1  UNL1        0.0312
     38 H           5.4431   -0.8785    0.0000 H       1  UNL1        0.0271
     39 H           5.8342   -1.5744    0.0000 H       1  UNL1        0.0271
     40 H           3.9147   -0.4662    0.0000 H       1  UNL1        0.0272
     41 H           4.7129   -0.4570    0.0000 H       1  UNL1        0.0272
     42 H           7.5449    1.4398    0.0000 H       1  UNL1        0.0268
     43 H           7.1463    2.1301    0.0000 H       1  UNL1        0.0268
     44 H           6.5493   -1.9947    0.0000 H       1  UNL1        0.0271
     45 H           7.3475   -1.9978    0.0000 H       1  UNL1        0.0271
     46 H           6.4668    2.5224    0.0000 H       1  UNL1        0.0268
     47 H           5.6697    2.5224    0.0000 H       1  UNL1        0.0268
     48 H           9.6784   -1.4526    0.0000 H       1  UNL1        0.0334
     49 H           9.3624    0.6790    0.0000 H       1  UNL1        0.0296
     50 H           8.5720    0.9306    0.0000 H       1  UNL1        0.0296
     51 H           9.8072    0.2995    0.0000 H       1  UNL1        0.0599
     52 H           2.7914    0.6328    0.0000 H       1  UNL1        0.0290
     53 H           3.1932   -0.0570    0.0000 H       1  UNL1        0.0290
     54 H           3.4058    2.1883    0.0000 H       1  UNL1        0.0599
     55 H           8.4566    1.0454    0.0000 H       1  UNL1        0.0235
     56 H           7.8318    1.6606    0.0000 H       1  UNL1        0.0235
     57 H           7.2166    1.0358    0.0000 H       1  UNL1        0.0235
     58 H           7.2400   -2.0057    0.0000 H       1  UNL1        0.0235
     59 H           7.8648   -2.6209    0.0000 H       1  UNL1        0.0235
     60 H           8.4800   -1.9962    0.0000 H       1  UNL1        0.0235
     61 H           8.5291   -2.1159    0.0000 H       1  UNL1        0.0302
     62 H           4.3588    3.2577    0.0000 H       1  UNL1        0.0236
     63 H           3.5146    3.4944    0.0000 H       1  UNL1        0.0236
     64 H           3.2778    2.6501    0.0000 H       1  UNL1        0.0236
     65 H           5.3516    2.6261    0.0000 H       1  UNL1        0.0236
     66 H           5.1344    3.4756    0.0000 H       1  UNL1        0.0236
     67 H           4.2850    3.2585    0.0000 H       1  UNL1        0.0236
     68 H           9.7058   -3.1787    0.0000 H       1  UNL1        0.0269
     69 H          10.4772   -3.1353    0.0000 H       1  UNL1        0.0269
     70 H           2.0000    1.7637    0.0000 H       1  UNL1        0.2098
     71 H           7.9672   -2.4927    0.0000 H       1  UNL1        0.0233
     72 H           7.9205   -3.3683    0.0000 H       1  UNL1        0.0233
     73 H           8.7960   -3.4151    0.0000 H       1  UNL1        0.0233
     74 H          11.3681   -0.3669    0.0000 H       1  UNL1        0.0624
     75 H          11.1241   -2.7789    0.0000 H       1  UNL1        0.0291
     76 H          11.5729   -2.1499    0.0000 H       1  UNL1        0.0291
     77 H          11.7653   -2.0413    0.0000 H       1  UNL1        0.0258
     78 H          12.5304   -2.4696    0.0000 H       1  UNL1        0.0258
     79 H          12.9586   -1.7044    0.0000 H       1  UNL1        0.0258
     80 H          12.4152    0.2203    0.0000 H       1  UNL1        0.0258
     81 H          11.6501    0.6486    0.0000 H       1  UNL1        0.0258
     82 H          11.2219   -0.1166    0.0000 H       1  UNL1        0.0258
     83 H          13.4969   -1.0713    0.0000 H       1  UNL1        0.2102
@<TRIPOS>BOND
     1     1    19    1
     2     1    29    1
     3    21     2    1
     4     2    70    1
     5     3    31    1
     6     3    83    1
     7     4     5    1
     8     4     6    1
     9     4     7    1
    10     4    10    1
    11     5     6    1
    12     5     8    1
    13     5    12    1
    14     6    34    1
    15     6    35    1
    16     7     9    1
    17     7    13    1
    18     7    36    1
    19     8    15    1
    20     8    16    1
    21     8    37    1
    22     9    11    1
    23     9    18    1
    24     9    22    1
    25    10    14    1
    26    10    38    1
    27    10    39    1
    28    11    14    1
    29    11    17    1
    30    11    23    1
    31    12    20    1
    32    12    40    1
    33    12    41    1
    34    13    15    1
    35    13    42    1
    36    13    43    1
    37    14    44    1
    38    14    45    1
    39    15    46    1
    40    15    47    1
    41    16    21    1
    42    16    25    1
    43    16    26    1
    44    17    19    1
    45    17    24    1
    46    17    48    1
    47    18    19    1
    48    18    49    1
    49    18    50    1
    50    19    51    1
    51    20    21    1
    52    20    52    1
    53    20    53    1
    54    21    54    1
    55    22    55    1
    56    22    56    1
    57    22    57    1
    58    23    58    1
    59    23    59    1
    60    23    60    1
    61    24    27    1
    62    24    28    1
    63    24    61    1
    64    25    62    1
    65    25    63    1
    66    25    64    1
    67    26    65    1
    68    26    66    1
    69    26    67    1
    70    27    30    1
    71    27    68    1
    72    27    69    1
    73    28    71    1
    74    28    72    1
    75    28    73    1
    76    29    30    1
    77    29    31    1
    78    29    74    1
    79    30    75    1
    80    30    76    1
    81    31    32    1
    82    31    33    1
    83    32    77    1
    84    32    78    1
    85    32    79    1
    86    33    80    1
    87    33    81    1
    88    33    82    1
