@<TRIPOS>MOLECULE
IMPHY002885
 21 20 0 0 0
SMALL
GASTEIGER

@<TRIPOS>ATOM
      1 N           7.7331   -0.0600    0.0000 N.3     1  UNL1       -0.3300
      2 N           2.5369   -0.0600    0.0000 N.3     1  UNL1       -0.3300
      3 C           5.1350   -0.5600    0.0000 C.3     1  UNL1       -0.0508
      4 C           6.0010   -0.0600    0.0000 C.3     1  UNL1       -0.0406
      5 C           4.2690   -0.0600    0.0000 C.3     1  UNL1       -0.0406
      6 C           3.4030   -0.5600    0.0000 C.3     1  UNL1       -0.0069
      7 C           6.8671   -0.5600    0.0000 C.3     1  UNL1       -0.0069
      8 H           4.7365   -1.0350    0.0000 H       1  UNL1        0.0266
      9 H           5.5335   -1.0350    0.0000 H       1  UNL1        0.0266
     10 H           6.3996    0.4149    0.0000 H       1  UNL1        0.0277
     11 H           5.6025    0.4149    0.0000 H       1  UNL1        0.0277
     12 H           4.6675    0.4149    0.0000 H       1  UNL1        0.0277
     13 H           3.8705    0.4149    0.0000 H       1  UNL1        0.0277
     14 H           3.0044   -1.0350    0.0000 H       1  UNL1        0.0422
     15 H           3.8015   -1.0350    0.0000 H       1  UNL1        0.0422
     16 H           6.4685   -1.0350    0.0000 H       1  UNL1        0.0422
     17 H           7.2656   -1.0350    0.0000 H       1  UNL1        0.0422
     18 H           8.2700   -0.3700    0.0000 H       1  UNL1        0.1182
     19 H           7.7331    0.5600    0.0000 H       1  UNL1        0.1182
     20 H           2.0000   -0.3700    0.0000 H       1  UNL1        0.1182
     21 H           2.5369    0.5600    0.0000 H       1  UNL1        0.1182
@<TRIPOS>BOND
     1     1     7    1
     2     1    18    1
     3     1    19    1
     4     2     6    1
     5     2    20    1
     6     2    21    1
     7     3     4    1
     8     3     5    1
     9     3     8    1
    10     3     9    1
    11     4     7    1
    12     4    10    1
    13     4    11    1
    14     5     6    1
    15     5    12    1
    16     5    13    1
    17     6    14    1
    18     6    15    1
    19     7    16    1
    20     7    17    1
