@<TRIPOS>MOLECULE
IMPHY012338
 48 51 0 0 0
SMALL
GASTEIGER

@<TRIPOS>ATOM
      1 O           6.3582   -0.2169    0.0000 O.3     1  UNL1       -0.4800
      2 O           8.5022    1.8516    0.0000 O.3     1  UNL1       -0.4881
      3 O           6.5460    2.2674    0.0000 O.3     1  UNL1       -0.3765
      4 O           2.8687    0.6873    0.0000 O.3     1  UNL1       -0.4947
      5 O          11.1418   -0.4926    0.0000 O.3     1  UNL1       -0.5066
      6 C           6.8550    1.3163    0.0000 C.3     1  UNL1        0.1689
      7 C           7.1640    0.3653    0.0000 C.3     1  UNL1        0.1645
      8 C           5.8609    1.3138    0.0000 C.ar    1  UNL1        0.0333
      9 C           7.5241    2.0595    0.0000 C.3     1  UNL1        0.1263
     10 C           5.5545    0.3681    0.0000 C.ar    1  UNL1        0.1346
     11 C           8.1421    0.1574    0.0000 C.ar    1  UNL1        0.0378
     12 C           8.8113    0.9005    0.0000 C.ar    1  UNL1        0.1309
     13 C           4.5453    0.1363    0.0000 C.ar    1  UNL1        0.0399
     14 C           5.1793    2.0933    0.0000 C.ar    1  UNL1       -0.0486
     15 C           8.4487   -0.8381    0.0000 C.ar    1  UNL1       -0.0480
     16 C           3.8459    0.8999    0.0000 C.ar    1  UNL1        0.1270
     17 C           4.1650    1.8849    0.0000 C.ar    1  UNL1       -0.0191
     18 C           4.2482   -0.8185    0.0000 C.3     1  UNL1       -0.0023
     19 C           9.8334    0.6997    0.0000 C.ar    1  UNL1        0.0219
     20 C           9.4659   -1.0625    0.0000 C.ar    1  UNL1       -0.0196
     21 C          10.1629   -0.2885    0.0000 C.ar    1  UNL1        0.1204
     22 C           3.2727   -1.0386    0.0000 C.2     1  UNL1       -0.0807
     23 C           2.9755   -1.9934    0.0000 C.2     1  UNL1       -0.0793
     24 C           2.1961    1.4273    0.0000 C.3     1  UNL1        0.0788
     25 C           2.0000   -2.2134    0.0000 C.3     1  UNL1       -0.0440
     26 C           3.6538   -2.7282    0.0000 C.3     1  UNL1       -0.0440
     27 H           7.3396   -0.4664    0.0000 H       1  UNL1        0.0820
     28 H           7.7564    2.6343    0.0000 H       1  UNL1        0.0730
     29 H           6.9983    2.3880    0.0000 H       1  UNL1        0.0730
     30 H           5.3772    2.6808    0.0000 H       1  UNL1        0.0624
     31 H           6.9608    2.7282    0.0000 H       1  UNL1        0.2109
     32 H           8.0285   -1.2940    0.0000 H       1  UNL1        0.0624
     33 H           3.7515    2.3469    0.0000 H       1  UNL1        0.0654
     34 H           4.2775   -1.4378    0.0000 H       1  UNL1        0.0358
     35 H           4.8631   -0.8972    0.0000 H       1  UNL1        0.0358
     36 H          10.2429    1.1652    0.0000 H       1  UNL1        0.0691
     37 H           9.6552   -1.6529    0.0000 H       1  UNL1        0.0654
     38 H           2.8521   -0.5830    0.0000 H       1  UNL1        0.0575
     39 H           2.6549    1.8443    0.0000 H       1  UNL1        0.0660
     40 H           1.7791    1.8861    0.0000 H       1  UNL1        0.0660
     41 H           1.7373    1.0103    0.0000 H       1  UNL1        0.0660
     42 H          11.3357   -1.0815    0.0000 H       1  UNL1        0.2921
     43 H           1.8636   -1.6086    0.0000 H       1  UNL1        0.0274
     44 H           1.3952   -2.3499    0.0000 H       1  UNL1        0.0274
     45 H           2.1364   -2.8182    0.0000 H       1  UNL1        0.0274
     46 H           3.1982   -3.1487    0.0000 H       1  UNL1        0.0274
     47 H           4.0744   -3.1837    0.0000 H       1  UNL1        0.0274
     48 H           4.1094   -2.3076    0.0000 H       1  UNL1        0.0274
@<TRIPOS>BOND
     1     1     7    1
     2     1    10    1
     3     2     9    1
     4     2    12    1
     5     6     3    1
     6     3    31    1
     7     4    16    1
     8     4    24    1
     9     5    21    1
    10     5    42    1
    11     6     7    1
    12     6     8    1
    13     6     9    1
    14     7    11    1
    15     7    27    1
    16     8    10   ar
    17     8    14   ar
    18     9    28    1
    19     9    29    1
    20    10    13   ar
    21    11    12   ar
    22    11    15   ar
    23    12    19   ar
    24    13    16   ar
    25    13    18    1
    26    14    17   ar
    27    14    30    1
    28    15    20   ar
    29    15    32    1
    30    16    17   ar
    31    17    33    1
    32    18    22    1
    33    18    34    1
    34    18    35    1
    35    19    21   ar
    36    19    36    1
    37    20    21   ar
    38    20    37    1
    39    22    23    2
    40    22    38    1
    41    23    25    1
    42    23    26    1
    43    24    39    1
    44    24    40    1
    45    24    41    1
    46    25    43    1
    47    25    44    1
    48    25    45    1
    49    26    46    1
    50    26    47    1
    51    26    48    1
