@<TRIPOS>MOLECULE
IMPHY017560
 17 16 0 0 0
SMALL
GASTEIGER

@<TRIPOS>ATOM
      1 CL          2.0000   -0.5000    0.0000 Cl      1  UNL1       -0.1187
      2 C           2.8660    0.0000    0.0000 C.3     1  UNL1        0.0394
      3 C           3.7320    0.5000    0.0000 C.3     1  UNL1       -0.0372
      4 C           2.3660    0.8660    0.0000 C.3     1  UNL1       -0.0462
      5 C           3.3660   -0.8660    0.0000 C.3     1  UNL1       -0.0462
      6 C           4.5981    0.0000    0.0000 C.3     1  UNL1       -0.0637
      7 H           4.1306    0.9749    0.0000 H       1  UNL1        0.0279
      8 H           3.3335    0.9749    0.0000 H       1  UNL1        0.0279
      9 H           2.9030    1.1760    0.0000 H       1  UNL1        0.0246
     10 H           2.0560    1.4030    0.0000 H       1  UNL1        0.0246
     11 H           1.8291    0.5560    0.0000 H       1  UNL1        0.0246
     12 H           2.8291   -1.1760    0.0000 H       1  UNL1        0.0246
     13 H           3.6760   -1.4030    0.0000 H       1  UNL1        0.0246
     14 H           3.9030   -0.5560    0.0000 H       1  UNL1        0.0246
     15 H           4.2881   -0.5369    0.0000 H       1  UNL1        0.0230
     16 H           5.1350   -0.3100    0.0000 H       1  UNL1        0.0230
     17 H           4.9081    0.5369    0.0000 H       1  UNL1        0.0230
@<TRIPOS>BOND
     1     1     2    1
     2     2     3    1
     3     2     4    1
     4     2     5    1
     5     3     6    1
     6     3     7    1
     7     3     8    1
     8     4     9    1
     9     4    10    1
    10     4    11    1
    11     5    12    1
    12     5    13    1
    13     5    14    1
    14     6    15    1
    15     6    16    1
    16     6    17    1
