@<TRIPOS>MOLECULE
IMPHY017509
 12 12 0 0 0
SMALL
GASTEIGER

@<TRIPOS>ATOM
      1 S           4.5032   -0.7694    0.0000 S.2     1  UNL1       -0.0391
      2 O           2.7431   -0.4907    0.0000 O.3     1  UNL1       -0.4871
      3 N           5.0032    0.7694    0.0000 N.ar    1  UNL1       -0.2519
      4 C           3.6942   -0.1816    0.0000 C.ar    1  UNL1        0.1775
      5 C           4.0032    0.7694    0.0000 C.ar    1  UNL1        0.0768
      6 C           2.0000    0.1785    0.0000 C.3     1  UNL1        0.0795
      7 C           5.3122   -0.1816    0.0000 C.ar    1  UNL1        0.0682
      8 H           3.6388    1.2710    0.0000 H       1  UNL1        0.0873
      9 H           2.4149    0.6392    0.0000 H       1  UNL1        0.0660
     10 H           1.5392    0.5933    0.0000 H       1  UNL1        0.0660
     11 H           1.5851   -0.2823    0.0000 H       1  UNL1        0.0660
     12 H           5.9019   -0.3732    0.0000 H       1  UNL1        0.0908
@<TRIPOS>BOND
     1     1     4   ar
     2     1     7   ar
     3     2     4    1
     4     2     6    1
     5     3     5   ar
     6     3     7   ar
     7     4     5   ar
     8     5     8    1
     9     6     9    1
    10     6    10    1
    11     6    11    1
    12     7    12    1
