@<TRIPOS>MOLECULE
IMPHY013959
 52 54 0 0 0
SMALL
GASTEIGER

@<TRIPOS>ATOM
      1 O           6.3701   -2.1249    0.0000 O.3     1  UNL1       -0.4819
      2 O           4.6000   -0.0661    0.0000 O.3     1  UNL1       -0.4530
      3 O           6.3817    0.9443    0.0000 O.3     1  UNL1       -0.4526
      4 O           8.1140    0.9513    0.0000 O.2     1  UNL1       -0.4216
      5 O           3.7282   -1.5628    0.0000 O.2     1  UNL1       -0.2505
      6 O           4.6498    0.9644    0.0000 O.2     1  UNL1       -0.2511
      7 O           9.0082    2.4790    0.0000 O.2     1  UNL1       -0.2452
      8 C           5.4641   -1.6111    0.0000 C.3     1  UNL1        0.1455
      9 C           5.4641   -0.5694    0.0000 C.3     1  UNL1        0.1828
     10 C           6.3701   -0.0556    0.0000 C.3     1  UNL1        0.1752
     11 C           7.2641   -0.5902    0.0000 C.ar    1  UNL1        0.0810
     12 C           7.2641   -1.5902    0.0000 C.ar    1  UNL1        0.1318
     13 C           4.9674   -2.4790    0.0000 C.3     1  UNL1       -0.0215
     14 C           4.4641   -1.6149    0.0000 C.3     1  UNL1       -0.0215
     15 C           8.1301   -0.0902    0.0000 C.ar    1  UNL1        0.1494
     16 C           8.1301   -2.0902    0.0000 C.ar    1  UNL1       -0.0187
     17 C           8.9961   -0.5902    0.0000 C.ar    1  UNL1        0.0182
     18 C           3.7320   -0.5628    0.0000 C.2     1  UNL1        0.3104
     19 C           2.8680   -0.0594    0.0000 C.3     1  UNL1        0.0534
     20 C           8.9961   -1.5902    0.0000 C.ar    1  UNL1       -0.0476
     21 C           2.8718    0.9406    0.0000 C.3     1  UNL1       -0.0432
     22 C           5.5215    1.4543    0.0000 C.2     1  UNL1        0.3046
     23 C           9.9061   -0.0834    0.0000 C.ar    1  UNL1       -0.0443
     24 C           2.0000   -0.5561    0.0000 C.3     1  UNL1       -0.0523
     25 C           9.0121    1.4790    0.0000 C.ar    1  UNL1        0.3372
     26 C           9.9142    0.9582    0.0000 C.ar    1  UNL1        0.0236
     27 C           2.0077    1.4439    0.0000 C.3     1  UNL1       -0.0645
     28 C           5.5331    2.4543    0.0000 C.3     1  UNL1        0.0333
     29 H           5.4677    0.0506    0.0000 H       1  UNL1        0.0816
     30 H           5.8362    0.2596    0.0000 H       1  UNL1        0.0827
     31 H           4.4293   -2.1711    0.0000 H       1  UNL1        0.0269
     32 H           4.6595   -3.0171    0.0000 H       1  UNL1        0.0269
     33 H           5.5055   -2.7869    0.0000 H       1  UNL1        0.0269
     34 H           4.4617   -0.9949    0.0000 H       1  UNL1        0.0269
     35 H           3.8441   -1.6173    0.0000 H       1  UNL1        0.0269
     36 H           4.4665   -2.2349    0.0000 H       1  UNL1        0.0269
     37 H           8.1301   -2.7102    0.0000 H       1  UNL1        0.0654
     38 H           2.3322    0.2526    0.0000 H       1  UNL1        0.0410
     39 H           9.5331   -1.9002    0.0000 H       1  UNL1        0.0626
     40 H           3.4820    0.8306    0.0000 H       1  UNL1        0.0270
     41 H           3.0861    1.5224    0.0000 H       1  UNL1        0.0270
     42 H          10.4395   -0.3996    0.0000 H       1  UNL1        0.0627
     43 H           1.6921   -0.0180    0.0000 H       1  UNL1        0.0238
     44 H           1.4619   -0.8640    0.0000 H       1  UNL1        0.0238
     45 H           2.3079   -1.0942    0.0000 H       1  UNL1        0.0238
     46 H          10.4523    1.2661    0.0000 H       1  UNL1        0.0689
     47 H           2.3198    1.9796    0.0000 H       1  UNL1        0.0230
     48 H           1.4720    1.7560    0.0000 H       1  UNL1        0.0230
     49 H           1.6956    0.9082    0.0000 H       1  UNL1        0.0230
     50 H           6.1530    2.4471    0.0000 H       1  UNL1        0.0342
     51 H           5.5402    3.0742    0.0000 H       1  UNL1        0.0342
     52 H           4.9131    2.4614    0.0000 H       1  UNL1        0.0342
@<TRIPOS>BOND
     1     1     8    1
     2     1    12    1
     3     9     2    1
     4     2    18    1
     5    10     3    1
     6     3    22    1
     7     4    15   ar
     8     4    25   ar
     9     5    18    2
    10     6    22    2
    11     7    25    2
    12     8     9    1
    13     8    13    1
    14     8    14    1
    15     9    10    1
    16     9    29    1
    17    10    11    1
    18    10    30    1
    19    11    12   ar
    20    11    15   ar
    21    12    16   ar
    22    13    31    1
    23    13    32    1
    24    13    33    1
    25    14    34    1
    26    14    35    1
    27    14    36    1
    28    15    17   ar
    29    16    20   ar
    30    16    37    1
    31    17    20   ar
    32    17    23   ar
    33    18    19    1
    34    19    21    1
    35    19    24    1
    36    19    38    1
    37    20    39    1
    38    21    27    1
    39    21    40    1
    40    21    41    1
    41    22    28    1
    42    23    26   ar
    43    23    42    1
    44    24    43    1
    45    24    44    1
    46    24    45    1
    47    25    26   ar
    48    26    46    1
    49    27    47    1
    50    27    48    1
    51    27    49    1
    52    28    50    1
    53    28    51    1
    54    28    52    1
