@<TRIPOS>MOLECULE
IMPHY001586
 78 83 0 0 0
SMALL
GASTEIGER

@<TRIPOS>ATOM
      1 O           4.7029    2.8024    0.0000 O.3     1  UNL1       -0.4526
      2 O           5.8876   -0.6209    0.0000 O.2     1  UNL1       -0.2923
      3 O           4.4811   -5.2672    0.0000 O.3     1  UNL1       -0.3912
      4 O           5.9004    3.9998    0.0000 O.2     1  UNL1       -0.2502
      5 C           3.1124   -0.3448    0.0000 C.3     1  UNL1       -0.0125
      6 C           3.0397    0.7377    0.0000 C.3     1  UNL1       -0.0009
      7 C           4.0900   -0.8156    0.0000 C.3     1  UNL1        0.0333
      8 C           4.1918   -1.9412    0.0000 C.3     1  UNL1       -0.0182
      9 C           3.8019    2.3685    0.0000 C.3     1  UNL1        0.1417
     10 C           3.2630   -2.5850    0.0000 C.3     1  UNL1       -0.0274
     11 C           2.9010    2.8024    0.0000 C.3     1  UNL1        0.0119
     12 C           3.8958    1.3311    0.0000 C.2     1  UNL1       -0.0163
     13 C           2.1690   -0.9670    0.0000 C.3     1  UNL1       -0.0459
     14 C           2.1012    1.1897    0.0000 C.3     1  UNL1       -0.0426
     15 C           2.2447   -2.0946    0.0000 C.3     1  UNL1       -0.0486
     16 C           2.0314    2.2290    0.0000 C.3     1  UNL1       -0.0429
     17 C           3.3419   -3.7596    0.0000 C.3     1  UNL1       -0.0056
     18 C           3.6951    3.5453    0.0000 C.3     1  UNL1        0.0072
     19 C           5.2640   -2.4273    0.0000 C.3     1  UNL1       -0.0443
     20 C           4.3019    4.5592    0.0000 C.3     1  UNL1        0.0690
     21 C           2.6785    3.7773    0.0000 C.3     1  UNL1       -0.0427
     22 C           4.9817   -0.1975    0.0000 C.2     1  UNL1        0.1603
     23 C           2.1174   -0.2453    0.0000 C.3     1  UNL1       -0.0581
     24 C           2.0725    0.4835    0.0000 C.3     1  UNL1       -0.0552
     25 C           4.8840    0.8831    0.0000 C.2     1  UNL1       -0.0154
     26 C           3.3019    4.5592    0.0000 C.3     1  UNL1       -0.0367
     27 C           4.4025   -4.2703    0.0000 C.3     1  UNL1        0.0606
     28 C           5.0137   -1.3715    0.0000 C.3     1  UNL1       -0.0586
     29 C           5.3700   -3.5997    0.0000 C.3     1  UNL1       -0.0258
     30 C           2.0000    3.2363    0.0000 C.3     1  UNL1       -0.0556
     31 C           4.9254    3.7773    0.0000 C.2     1  UNL1        0.3140
     32 C           2.9045   -4.6588    0.0000 C.3     1  UNL1       -0.0572
     33 C           2.3444   -3.8304    0.0000 C.3     1  UNL1       -0.0572
     34 C           4.5245    5.5341    0.0000 C.3     1  UNL1       -0.0493
     35 H           4.6517   -1.0781    0.0000 H       1  UNL1        0.0392
     36 H           2.7494   -2.9323    0.0000 H       1  UNL1        0.0312
     37 H           1.9212   -0.3986    0.0000 H       1  UNL1        0.0271
     38 H           1.5666   -1.1138    0.0000 H       1  UNL1        0.0271
     39 H           1.4846    1.2546    0.0000 H       1  UNL1        0.0274
     40 H           1.9318    0.5933    0.0000 H       1  UNL1        0.0274
     41 H           1.6281   -2.0297    0.0000 H       1  UNL1        0.0268
     42 H           2.0753   -2.6910    0.0000 H       1  UNL1        0.0268
     43 H           1.7837    2.7973    0.0000 H       1  UNL1        0.0272
     44 H           1.4290    2.0822    0.0000 H       1  UNL1        0.0272
     45 H           3.2873    4.0123    0.0000 H       1  UNL1        0.0318
     46 H           3.1250    3.3014    0.0000 H       1  UNL1        0.0318
     47 H           5.8819   -2.4779    0.0000 H       1  UNL1        0.0272
     48 H           5.4196   -1.8271    0.0000 H       1  UNL1        0.0272
     49 H           2.2919    4.2621    0.0000 H       1  UNL1        0.0272
     50 H           2.1198    3.5083    0.0000 H       1  UNL1        0.0272
     51 H           2.1791    0.3717    0.0000 H       1  UNL1        0.0236
     52 H           1.5005   -0.1835    0.0000 H       1  UNL1        0.0236
     53 H           2.0557   -0.8622    0.0000 H       1  UNL1        0.0236
     54 H           1.9149    1.0832    0.0000 H       1  UNL1        0.0238
     55 H           1.4729    0.3259    0.0000 H       1  UNL1        0.0238
     56 H           2.2302   -0.1161    0.0000 H       1  UNL1        0.0238
     57 H           5.3894    1.2422    0.0000 H       1  UNL1        0.0653
     58 H           3.4399    5.1636    0.0000 H       1  UNL1        0.0276
     59 H           2.7433    4.8282    0.0000 H       1  UNL1        0.0276
     60 H           3.8909   -4.6206    0.0000 H       1  UNL1        0.0599
     61 H           5.3669   -1.8810    0.0000 H       1  UNL1        0.0235
     62 H           5.5232   -1.0183    0.0000 H       1  UNL1        0.0235
     63 H           4.6605   -0.8619    0.0000 H       1  UNL1        0.0235
     64 H           5.6308   -4.1622    0.0000 H       1  UNL1        0.0290
     65 H           5.9688   -3.4390    0.0000 H       1  UNL1        0.0290
     66 H           2.2690    3.7949    0.0000 H       1  UNL1        0.0236
     67 H           1.4414    3.5053    0.0000 H       1  UNL1        0.0236
     68 H           1.7310    2.6777    0.0000 H       1  UNL1        0.0236
     69 H           2.3470   -4.3877    0.0000 H       1  UNL1        0.0236
     70 H           2.6334   -5.2164    0.0000 H       1  UNL1        0.0236
     71 H           3.4621   -4.9300    0.0000 H       1  UNL1        0.0236
     72 H           2.3004   -3.2120    0.0000 H       1  UNL1        0.0236
     73 H           1.7260   -3.8744    0.0000 H       1  UNL1        0.0236
     74 H           2.3883   -4.4489    0.0000 H       1  UNL1        0.0236
     75 H           5.1289    5.3961    0.0000 H       1  UNL1        0.0240
     76 H           4.6624    6.1385    0.0000 H       1  UNL1        0.0240
     77 H           3.9200    5.6720    0.0000 H       1  UNL1        0.0240
     78 H           5.0407   -5.5341    0.0000 H       1  UNL1        0.2098
@<TRIPOS>BOND
     1     1     9    1
     2     1    31    1
     3     2    22    2
     4     3    27    1
     5     3    78    1
     6     4    31    2
     7     5     6    1
     8     5     7    1
     9     5    13    1
    10     5    23    1
    11     6    12    1
    12     6    14    1
    13     6    24    1
    14     7     8    1
    15     7    22    1
    16     7    35    1
    17     8    10    1
    18     8    19    1
    19     8    28    1
    20     9    11    1
    21     9    12    1
    22     9    18    1
    23    10    15    1
    24    10    17    1
    25    10    36    1
    26    11    16    1
    27    11    21    1
    28    11    30    1
    29    12    25    2
    30    13    15    1
    31    13    37    1
    32    13    38    1
    33    14    16    1
    34    14    39    1
    35    14    40    1
    36    15    41    1
    37    15    42    1
    38    16    43    1
    39    16    44    1
    40    17    27    1
    41    17    32    1
    42    17    33    1
    43    18    20    1
    44    18    45    1
    45    18    46    1
    46    19    29    1
    47    19    47    1
    48    19    48    1
    49    20    26    1
    50    20    31    1
    51    20    34    1
    52    21    26    1
    53    21    49    1
    54    21    50    1
    55    22    25    1
    56    23    51    1
    57    23    52    1
    58    23    53    1
    59    24    54    1
    60    24    55    1
    61    24    56    1
    62    25    57    1
    63    26    58    1
    64    26    59    1
    65    27    29    1
    66    27    60    1
    67    28    61    1
    68    28    62    1
    69    28    63    1
    70    29    64    1
    71    29    65    1
    72    30    66    1
    73    30    67    1
    74    30    68    1
    75    32    69    1
    76    32    70    1
    77    32    71    1
    78    33    72    1
    79    33    73    1
    80    33    74    1
    81    34    75    1
    82    34    76    1
    83    34    77    1
