@<TRIPOS>MOLECULE
IMPHY001311
 47 52 0 0 0
SMALL
GASTEIGER

@<TRIPOS>ATOM
      1 O           5.4014   -0.1580    0.0000 O.3     1  UNL1       -0.4569
      2 O           2.3981   -1.5634    0.0000 O.3     1  UNL1       -0.3670
      3 O           9.0341   -1.7227    0.0000 O.3     1  UNL1       -0.3843
      4 O           3.8200    1.2714    0.0000 O.2     1  UNL1       -0.2501
      5 O           6.3210    1.7562    0.0000 O.3     1  UNL1       -0.4804
      6 O           5.1125    2.1947    0.0000 O.2     1  UNL1       -0.2507
      7 C           4.9775   -1.2152    0.0000 C.3     1  UNL1        0.1239
      8 C           4.6838   -0.3066    0.0000 C.3     1  UNL1        0.0307
      9 C           6.2301   -0.3050    0.0000 C.3     1  UNL1       -0.0028
     10 C           5.9330   -1.2187    0.0000 C.3     1  UNL1        0.0063
     11 C           3.7198   -0.1001    0.0000 C.3     1  UNL1        0.1005
     12 C           5.4564    0.2553    0.0000 C.3     1  UNL1        0.0702
     13 C           3.0590   -0.8318    0.0000 C.3     1  UNL1        0.1012
     14 C           4.3262   -1.9764    0.0000 C.3     1  UNL1        0.0166
     15 C           3.3622   -1.7699    0.0000 C.3     1  UNL1        0.0900
     16 C           6.9759   -1.1608    0.0000 C.3     1  UNL1       -0.0130
     17 C           6.4616   -2.0207    0.0000 C.3     1  UNL1       -0.0431
     18 C           7.1303    0.0319    0.0000 C.3     1  UNL1       -0.0224
     19 C           8.0832   -1.4133    0.0000 C.3     1  UNL1        0.0874
     20 C           4.4812    0.5212    0.0000 C.2     1  UNL1        0.3166
     21 C           7.4187   -2.1072    0.0000 C.3     1  UNL1       -0.0197
     22 C           7.9542   -0.4612    0.0000 C.2     1  UNL1       -0.0449
     23 C           3.0307    0.6245    0.0000 C.3     1  UNL1       -0.0465
     24 C           5.4555    1.2553    0.0000 C.2     1  UNL1        0.3088
     25 C           8.7078    0.1962    0.0000 C.2     1  UNL1       -0.0967
     26 H           4.9235    0.5089    0.0000 H       1  UNL1        0.0359
     27 H           5.5286   -1.9663    0.0000 H       1  UNL1        0.0345
     28 H           6.0085    0.5375    0.0000 H       1  UNL1        0.0423
     29 H           2.5988   -0.4162    0.0000 H       1  UNL1        0.0633
     30 H           4.8573   -2.2963    0.0000 H       1  UNL1        0.0330
     31 H           4.0982   -2.5530    0.0000 H       1  UNL1        0.0330
     32 H           3.2324   -2.3762    0.0000 H       1  UNL1        0.0623
     33 H           7.0314   -1.7784    0.0000 H       1  UNL1        0.0302
     34 H           6.4056   -1.4041    0.0000 H       1  UNL1        0.0302
     35 H           6.5445   -2.6351    0.0000 H       1  UNL1        0.0270
     36 H           5.8810   -2.2382    0.0000 H       1  UNL1        0.0270
     37 H           6.7892    0.5497    0.0000 H       1  UNL1        0.0316
     38 H           7.5591    0.4797    0.0000 H       1  UNL1        0.0316
     39 H           7.9507   -2.4255    0.0000 H       1  UNL1        0.0296
     40 H           7.2268   -2.6967    0.0000 H       1  UNL1        0.0296
     41 H           2.5814    0.1973    0.0000 H       1  UNL1        0.0241
     42 H           2.6034    1.0738    0.0000 H       1  UNL1        0.0241
     43 H           3.4800    1.0518    0.0000 H       1  UNL1        0.0241
     44 H           9.1628   -2.3292    0.0000 H       1  UNL1        0.2106
     45 H           8.5885    0.8046    0.0000 H       1  UNL1        0.0535
     46 H           9.2944   -0.0046    0.0000 H       1  UNL1        0.0535
     47 H           6.3204    2.3762    0.0000 H       1  UNL1        0.2951
@<TRIPOS>BOND
     1     7     1    1
     2     1    20    1
     3    13     2    1
     4    15     2    1
     5    19     3    1
     6     3    44    1
     7     4    20    2
     8     5    24    1
     9     5    47    1
    10     6    24    2
    11     7     8    1
    12     7    10    1
    13     7    14    1
    14     8    11    1
    15     8    12    1
    16     8    26    1
    17     9    10    1
    18     9    12    1
    19     9    16    1
    20     9    18    1
    21    10    17    1
    22    10    27    1
    23    11    13    1
    24    11    20    1
    25    11    23    1
    26    12    24    1
    27    12    28    1
    28    13    15    1
    29    13    29    1
    30    14    15    1
    31    14    30    1
    32    14    31    1
    33    15    32    1
    34    16    19    1
    35    16    33    1
    36    16    34    1
    37    17    21    1
    38    17    35    1
    39    17    36    1
    40    18    22    1
    41    18    37    1
    42    18    38    1
    43    19    21    1
    44    19    22    1
    45    21    39    1
    46    21    40    1
    47    22    25    2
    48    23    41    1
    49    23    42    1
    50    23    43    1
    51    25    45    1
    52    25    46    1
