@<TRIPOS>MOLECULE
IMPHY012864
 30 32 0 0 0
SMALL
GASTEIGER

@<TRIPOS>ATOM
      1 O           6.3981   -1.0000    0.0000 O.2     1  UNL1       -0.4506
      2 O           2.8680   -1.0241    0.0000 O.3     1  UNL1       -0.4913
      3 O           4.6497   -2.0346    0.0000 O.3     1  UNL1       -0.5009
      4 O           6.3981    2.0000    0.0000 O.2     1  UNL1       -0.2863
      5 O           8.1465    2.0346    0.0000 O.3     1  UNL1       -0.5058
      6 O           9.9282   -1.0241    0.0000 O.3     1  UNL1       -0.5065
      7 C           5.5320    0.5000    0.0000 C.ar    1  UNL1        0.0686
      8 C           7.2641    0.5000    0.0000 C.ar    1  UNL1        0.1061
      9 C           5.5320   -0.5000    0.0000 C.ar    1  UNL1        0.1841
     10 C           7.2641   -0.5000    0.0000 C.ar    1  UNL1        0.1464
     11 C           6.3981    1.0000    0.0000 C.ar    1  UNL1        0.2038
     12 C           4.6381   -1.0347    0.0000 C.ar    1  UNL1        0.2024
     13 C           4.6381    1.0347    0.0000 C.ar    1  UNL1       -0.0437
     14 C           8.1580    1.0347    0.0000 C.ar    1  UNL1        0.1347
     15 C           8.1580   -1.0347    0.0000 C.ar    1  UNL1        0.0231
     16 C           3.7320   -0.5208    0.0000 C.ar    1  UNL1        0.1650
     17 C           3.7320    0.5208    0.0000 C.ar    1  UNL1       -0.0154
     18 C           9.0641    0.5208    0.0000 C.ar    1  UNL1        0.0223
     19 C           9.0641   -0.5208    0.0000 C.ar    1  UNL1        0.1239
     20 C           2.0000   -0.5275    0.0000 C.3     1  UNL1        0.0790
     21 H           4.6453    1.6546    0.0000 H       1  UNL1        0.0627
     22 H           8.1509   -1.6546    0.0000 H       1  UNL1        0.0691
     23 H           3.1963    0.8329    0.0000 H       1  UNL1        0.0655
     24 H           9.5998    0.8329    0.0000 H       1  UNL1        0.0691
     25 H           4.1164   -2.3508    0.0000 H       1  UNL1        0.2924
     26 H           8.6798    2.3508    0.0000 H       1  UNL1        0.2922
     27 H          10.4663   -0.7162    0.0000 H       1  UNL1        0.2921
     28 H           2.3079    0.0106    0.0000 H       1  UNL1        0.0660
     29 H           1.4619   -0.2196    0.0000 H       1  UNL1        0.0660
     30 H           1.6921   -1.0656    0.0000 H       1  UNL1        0.0660
@<TRIPOS>BOND
     1     1     9   ar
     2     1    10   ar
     3     2    16    1
     4     2    20    1
     5     3    12    1
     6     3    25    1
     7     4    11    2
     8     5    14    1
     9     5    26    1
    10     6    19    1
    11     6    27    1
    12     7     9   ar
    13     7    11   ar
    14     7    13   ar
    15     8    10   ar
    16     8    11   ar
    17     8    14   ar
    18     9    12   ar
    19    10    15   ar
    20    12    16   ar
    21    13    17   ar
    22    13    21    1
    23    14    18   ar
    24    15    19   ar
    25    15    22    1
    26    16    17   ar
    27    17    23    1
    28    18    19   ar
    29    18    24    1
    30    20    28    1
    31    20    29    1
    32    20    30    1
