@<TRIPOS>MOLECULE
IMPHY007178
 76 80 0 0 0
SMALL
GASTEIGER

@<TRIPOS>ATOM
      1 O           6.8671   -3.0468    0.0000 O.3     1  UNL1       -0.3132
      2 O           5.1350   -3.0468    0.0000 O.3     1  UNL1       -0.3404
      3 O           8.3671   -1.1808    0.0000 O.3     1  UNL1       -0.4783
      4 O           6.0010   -2.5468    0.0000 O.3     1  UNL1       -0.3612
      5 O           8.3979    4.0813    0.0000 O.3     1  UNL1       -0.3339
      6 O           6.8671   -5.0468    0.0000 O.3     1  UNL1       -0.3841
      7 O           5.1350   -6.0468    0.0000 O.3     1  UNL1       -0.3864
      8 O           3.4030   -5.0468    0.0000 O.3     1  UNL1       -0.3865
      9 O           8.3912    2.3493    0.0000 O.3     1  UNL1       -0.4606
     10 O           5.3979    4.0929    0.0000 O.3     1  UNL1       -0.3864
     11 O           6.3912    2.3570    0.0000 O.3     1  UNL1       -0.3829
     12 O           6.4046    5.8211    0.0000 O.3     1  UNL1       -0.3866
     13 O           2.5369   -3.5468    0.0000 O.3     1  UNL1       -0.3924
     14 O           5.3325    0.5676    0.0000 O.3     1  UNL1       -0.5063
     15 O           9.8671   -5.5109    0.0000 O.3     1  UNL1       -0.5068
     16 C           6.8671   -2.0468    0.0000 C.3     1  UNL1        0.2161
     17 C           6.0010   -3.5468    0.0000 C.3     1  UNL1        0.1912
     18 C           6.0010   -4.5468    0.0000 C.3     1  UNL1        0.1342
     19 C           5.1350   -5.0468    0.0000 C.3     1  UNL1        0.1141
     20 C           4.2690   -4.5468    0.0000 C.3     1  UNL1        0.1119
     21 C           4.2690   -3.5468    0.0000 C.3     1  UNL1        0.1130
     22 C           7.8671   -2.0468    0.0000 C.3     1  UNL1        0.1788
     23 C           6.3671   -1.1808    0.0000 C.3     1  UNL1        0.0375
     24 C           6.8671   -0.3148    0.0000 C.ar    1  UNL1        0.0411
     25 C           6.3979    4.0891    0.0000 C.3     1  UNL1        0.1151
     26 C           6.8946    3.2211    0.0000 C.3     1  UNL1        0.1454
     27 C           6.9012    4.9532    0.0000 C.3     1  UNL1        0.1096
     28 C           7.8671   -0.3148    0.0000 C.ar    1  UNL1        0.1319
     29 C           7.8946    3.2173    0.0000 C.3     1  UNL1        0.2307
     30 C           7.9012    4.9493    0.0000 C.3     1  UNL1        0.0883
     31 C           3.4030   -3.0468    0.0000 C.3     1  UNL1        0.0730
     32 C           8.3671   -2.9129    0.0000 C.ar    1  UNL1       -0.0019
     33 C           6.3324    0.5792    0.0000 C.ar    1  UNL1        0.1271
     34 C           8.4017    0.5792    0.0000 C.ar    1  UNL1        0.0224
     35 C           7.8879    1.4852    0.0000 C.ar    1  UNL1        0.1309
     36 C           6.8462    1.4852    0.0000 C.ar    1  UNL1        0.0222
     37 C           8.4046    5.8134    0.0000 C.3     1  UNL1       -0.0360
     38 C           9.3671   -2.9129    0.0000 C.ar    1  UNL1       -0.0515
     39 C           7.8671   -3.7789    0.0000 C.ar    1  UNL1       -0.0515
     40 C           9.8671   -3.7789    0.0000 C.ar    1  UNL1       -0.0198
     41 C           8.3671   -4.6449    0.0000 C.ar    1  UNL1       -0.0198
     42 C           9.3671   -4.6449    0.0000 C.ar    1  UNL1        0.1169
     43 H           6.0010   -2.9268    0.0000 H       1  UNL1        0.0939
     44 H           6.0010   -5.1668    0.0000 H       1  UNL1        0.0671
     45 H           4.5981   -5.3568    0.0000 H       1  UNL1        0.0648
     46 H           3.7320   -4.2368    0.0000 H       1  UNL1        0.0647
     47 H           4.2690   -2.9268    0.0000 H       1  UNL1        0.0647
     48 H           8.4871   -2.0468    0.0000 H       1  UNL1        0.0840
     49 H           5.8921   -0.7823    0.0000 H       1  UNL1        0.0369
     50 H           5.8921   -1.5793    0.0000 H       1  UNL1        0.0369
     51 H           6.0900    4.6272    0.0000 H       1  UNL1        0.0648
     52 H           7.2025    2.6830    0.0000 H       1  UNL1        0.0683
     53 H           7.2133    5.4889    0.0000 H       1  UNL1        0.0646
     54 H           8.5146    3.2149    0.0000 H       1  UNL1        0.1084
     55 H           8.5212    4.9469    0.0000 H       1  UNL1        0.0621
     56 H           3.8015   -2.5719    0.0000 H       1  UNL1        0.0584
     57 H           3.0044   -2.5719    0.0000 H       1  UNL1        0.0584
     58 H           5.4641   -2.2368    0.0000 H       1  UNL1        0.2129
     59 H           9.0217    0.5720    0.0000 H       1  UNL1        0.0691
     60 H           6.8671   -5.6668    0.0000 H       1  UNL1        0.2101
     61 H           4.5981   -6.3568    0.0000 H       1  UNL1        0.2100
     62 H           3.4030   -5.6668    0.0000 H       1  UNL1        0.2100
     63 H           6.5342    2.0210    0.0000 H       1  UNL1        0.0691
     64 H           8.9403    5.5013    0.0000 H       1  UNL1        0.0255
     65 H           8.7166    6.3491    0.0000 H       1  UNL1        0.0255
     66 H           7.8688    6.1255    0.0000 H       1  UNL1        0.0255
     67 H           9.6771   -2.3759    0.0000 H       1  UNL1        0.0623
     68 H           7.2471   -3.7789    0.0000 H       1  UNL1        0.0623
     69 H           5.0900    4.6310    0.0000 H       1  UNL1        0.2100
     70 H           5.7712    2.3594    0.0000 H       1  UNL1        0.2102
     71 H           6.7166    6.3568    0.0000 H       1  UNL1        0.2100
     72 H           2.0000   -3.2368    0.0000 H       1  UNL1        0.2095
     73 H          10.4871   -3.7789    0.0000 H       1  UNL1        0.0654
     74 H           8.0571   -5.1818    0.0000 H       1  UNL1        0.0654
     75 H           5.0163    1.1009    0.0000 H       1  UNL1        0.2921
     76 H          10.4871   -5.5109    0.0000 H       1  UNL1        0.2921
@<TRIPOS>BOND
     1     1    16    1
     2    17     1    1
     3     2    17    1
     4     2    21    1
     5     3    22    1
     6     3    28    1
     7     4    16    1
     8     4    58    1
     9     5    29    1
    10     5    30    1
    11    18     6    1
    12     6    60    1
    13    19     7    1
    14     7    61    1
    15    20     8    1
    16     8    62    1
    17    29     9    1
    18     9    35    1
    19    25    10    1
    20    10    69    1
    21    26    11    1
    22    11    70    1
    23    27    12    1
    24    12    71    1
    25    13    31    1
    26    13    72    1
    27    14    33    1
    28    14    75    1
    29    15    42    1
    30    15    76    1
    31    16    22    1
    32    16    23    1
    33    17    18    1
    34    17    43    1
    35    18    19    1
    36    18    44    1
    37    19    20    1
    38    19    45    1
    39    20    21    1
    40    20    46    1
    41    21    31    1
    42    21    47    1
    43    22    32    1
    44    22    48    1
    45    23    24    1
    46    23    49    1
    47    23    50    1
    48    24    28   ar
    49    24    33   ar
    50    25    26    1
    51    25    27    1
    52    25    51    1
    53    26    29    1
    54    26    52    1
    55    27    30    1
    56    27    53    1
    57    28    34   ar
    58    29    54    1
    59    30    37    1
    60    30    55    1
    61    31    56    1
    62    31    57    1
    63    32    38   ar
    64    32    39   ar
    65    33    36   ar
    66    34    35   ar
    67    34    59    1
    68    35    36   ar
    69    36    63    1
    70    37    64    1
    71    37    65    1
    72    37    66    1
    73    38    40   ar
    74    38    67    1
    75    39    41   ar
    76    39    68    1
    77    40    42   ar
    78    40    73    1
    79    41    42   ar
    80    41    74    1
