@<TRIPOS>MOLECULE
IMPHY013206
 48 47 0 0 0
SMALL
GASTEIGER

@<TRIPOS>ATOM
      1 O           6.3301   -1.0950    0.0000 O.3     1  UNL1       -0.3918
      2 O          14.9904   -0.0950    0.0000 O.3     1  UNL1       -0.4806
      3 O          14.1244    1.4050    0.0000 O.2     1  UNL1       -0.2510
      4 C           7.1962    0.4050    0.0000 C.3     1  UNL1       -0.0269
      5 C           6.3301   -0.0950    0.0000 C.3     1  UNL1        0.0553
      6 C           8.0622   -0.0950    0.0000 C.3     1  UNL1       -0.0507
      7 C           8.9282    0.4050    0.0000 C.3     1  UNL1       -0.0530
      8 C           5.4641    0.4050    0.0000 C.3     1  UNL1       -0.0269
      9 C           9.7942   -0.0950    0.0000 C.3     1  UNL1       -0.0531
     10 C          10.6603    0.4050    0.0000 C.3     1  UNL1       -0.0530
     11 C           4.5981   -0.0950    0.0000 C.3     1  UNL1       -0.0507
     12 C          11.5263   -0.0950    0.0000 C.3     1  UNL1       -0.0526
     13 C           3.7320    0.4050    0.0000 C.3     1  UNL1       -0.0532
     14 C          12.3923    0.4050    0.0000 C.3     1  UNL1       -0.0430
     15 C           2.8660   -0.0950    0.0000 C.3     1  UNL1       -0.0559
     16 C          13.2583   -0.0950    0.0000 C.3     1  UNL1        0.0448
     17 C           2.0000    0.4050    0.0000 C.3     1  UNL1       -0.0653
     18 C          14.1244    0.4050    0.0000 C.2     1  UNL1        0.3047
     19 H           7.5947    0.8799    0.0000 H       1  UNL1        0.0290
     20 H           6.7976    0.8799    0.0000 H       1  UNL1        0.0290
     21 H           6.8671   -0.4050    0.0000 H       1  UNL1        0.0593
     22 H           7.6636   -0.5699    0.0000 H       1  UNL1        0.0266
     23 H           8.4607   -0.5699    0.0000 H       1  UNL1        0.0266
     24 H           9.3267    0.8799    0.0000 H       1  UNL1        0.0265
     25 H           8.5297    0.8799    0.0000 H       1  UNL1        0.0265
     26 H           5.8626    0.8799    0.0000 H       1  UNL1        0.0290
     27 H           5.0656    0.8799    0.0000 H       1  UNL1        0.0290
     28 H           9.3957   -0.5699    0.0000 H       1  UNL1        0.0265
     29 H          10.1928   -0.5699    0.0000 H       1  UNL1        0.0265
     30 H          11.0588    0.8799    0.0000 H       1  UNL1        0.0265
     31 H          10.2617    0.8799    0.0000 H       1  UNL1        0.0265
     32 H           4.1996   -0.5699    0.0000 H       1  UNL1        0.0266
     33 H           4.9966   -0.5699    0.0000 H       1  UNL1        0.0266
     34 H          11.1278   -0.5699    0.0000 H       1  UNL1        0.0265
     35 H          11.9248   -0.5699    0.0000 H       1  UNL1        0.0265
     36 H           4.1306    0.8799    0.0000 H       1  UNL1        0.0265
     37 H           3.3335    0.8799    0.0000 H       1  UNL1        0.0265
     38 H          12.7908    0.8799    0.0000 H       1  UNL1        0.0270
     39 H          11.9938    0.8799    0.0000 H       1  UNL1        0.0270
     40 H           2.4675   -0.5699    0.0000 H       1  UNL1        0.0263
     41 H           3.2646   -0.5699    0.0000 H       1  UNL1        0.0263
     42 H           5.7932   -1.4050    0.0000 H       1  UNL1        0.2098
     43 H          12.8598   -0.5699    0.0000 H       1  UNL1        0.0377
     44 H          13.6569   -0.5699    0.0000 H       1  UNL1        0.0377
     45 H           2.3100    0.9419    0.0000 H       1  UNL1        0.0230
     46 H           1.4631    0.7150    0.0000 H       1  UNL1        0.0230
     47 H           1.6900   -0.1319    0.0000 H       1  UNL1        0.0230
     48 H          15.5273    0.2150    0.0000 H       1  UNL1        0.2951
@<TRIPOS>BOND
     1     1     5    1
     2     1    42    1
     3     2    18    1
     4     2    48    1
     5     3    18    2
     6     4     5    1
     7     4     6    1
     8     4    19    1
     9     4    20    1
    10     5     8    1
    11     5    21    1
    12     6     7    1
    13     6    22    1
    14     6    23    1
    15     7     9    1
    16     7    24    1
    17     7    25    1
    18     8    11    1
    19     8    26    1
    20     8    27    1
    21     9    10    1
    22     9    28    1
    23     9    29    1
    24    10    12    1
    25    10    30    1
    26    10    31    1
    27    11    13    1
    28    11    32    1
    29    11    33    1
    30    12    14    1
    31    12    34    1
    32    12    35    1
    33    13    15    1
    34    13    36    1
    35    13    37    1
    36    14    16    1
    37    14    38    1
    38    14    39    1
    39    15    17    1
    40    15    40    1
    41    15    41    1
    42    16    18    1
    43    16    43    1
    44    16    44    1
    45    17    45    1
    46    17    46    1
    47    17    47    1
