@<TRIPOS>MOLECULE
IMPHY005523
 46 46 0 0 0
SMALL
GASTEIGER

@<TRIPOS>ATOM
      1 S           6.0010   -0.3450    0.0000 S.3     1  UNL1       -0.0728
      2 S           8.5991    1.1550    0.0000 S.3     1  UNL1        0.0672
      3 O           4.2690   -0.3450    0.0000 O.3     1  UNL1       -0.3549
      4 O           4.2690   -3.3450    0.0000 O.3     1  UNL1       -0.3865
      5 O           2.5369   -2.3450    0.0000 O.3     1  UNL1       -0.3865
      6 O           6.0010   -2.3450    0.0000 O.3     1  UNL1       -0.3857
      7 O           2.5369    0.6550    0.0000 O.3     1  UNL1       -0.3924
      8 O           7.7331    0.6550    0.0000 O.2     1  UNL1       -0.2480
      9 O           8.0991    2.0210    0.0000 O.co2   1  UNL1       -0.2572
     10 O           9.4651    1.6550    0.0000 O.2     1  UNL1       -0.3344
     11 O           9.0991    0.2890    0.0000 O.2     1  UNL1       -0.3344
     12 N           6.8671    1.1550    0.0000 N.2     1  UNL1       -0.0521
     13 C           4.2690   -2.3450    0.0000 C.3     1  UNL1        0.1126
     14 C           3.4030   -1.8450    0.0000 C.3     1  UNL1        0.1118
     15 C           5.1350   -1.8450    0.0000 C.3     1  UNL1        0.1192
     16 C           3.4030   -0.8450    0.0000 C.3     1  UNL1        0.1115
     17 C           5.1350   -0.8450    0.0000 C.3     1  UNL1        0.1384
     18 C           2.5369   -0.3450    0.0000 C.3     1  UNL1        0.0730
     19 C           5.1350    2.1550    0.0000 C.3     1  UNL1       -0.0381
     20 C           5.1350    1.1550    0.0000 C.3     1  UNL1        0.0016
     21 C           6.0010    0.6550    0.0000 C.2     1  UNL1        0.1183
     22 C           4.2690    2.6550    0.0000 C.3     1  UNL1       -0.0530
     23 C           6.0010    2.6550    0.0000 C.3     1  UNL1       -0.0621
     24 C           4.2690    3.6550    0.0000 C.3     1  UNL1       -0.0650
     25 H           4.8059   -2.6550    0.0000 H       1  UNL1        0.0647
     26 H           3.4030   -2.4650    0.0000 H       1  UNL1        0.0647
     27 H           5.6720   -1.5350    0.0000 H       1  UNL1        0.0655
     28 H           3.4030   -0.2250    0.0000 H       1  UNL1        0.0646
     29 H           5.1350   -0.2250    0.0000 H       1  UNL1        0.0743
     30 H           1.9264   -0.2373    0.0000 H       1  UNL1        0.0584
     31 H           2.3249   -0.9276    0.0000 H       1  UNL1        0.0584
     32 H           5.1350    2.7750    0.0000 H       1  UNL1        0.0302
     33 H           3.7320   -3.6550    0.0000 H       1  UNL1        0.2100
     34 H           2.0000   -2.0350    0.0000 H       1  UNL1        0.2100
     35 H           4.5244    1.2627    0.0000 H       1  UNL1        0.0337
     36 H           4.9230    0.5724    0.0000 H       1  UNL1        0.0337
     37 H           6.5380   -2.0350    0.0000 H       1  UNL1        0.2100
     38 H           3.6584    2.7627    0.0000 H       1  UNL1        0.0265
     39 H           4.0569    2.0724    0.0000 H       1  UNL1        0.0265
     40 H           6.3110    2.1181    0.0000 H       1  UNL1        0.0233
     41 H           6.5380    2.9650    0.0000 H       1  UNL1        0.0233
     42 H           5.6910    3.1919    0.0000 H       1  UNL1        0.0233
     43 H           2.0000    0.9650    0.0000 H       1  UNL1        0.2095
     44 H           4.8890    3.6550    0.0000 H       1  UNL1        0.0230
     45 H           4.2690    4.2750    0.0000 H       1  UNL1        0.0230
     46 H           3.6490    3.6550    0.0000 H       1  UNL1        0.0230
@<TRIPOS>UNITY_ATOM_ATTR
9 1
charge -1
@<TRIPOS>BOND
     1    17     1    1
     2     1    21    1
     3     2     8    1
     4     2     9    1
     5     2    10    2
     6     2    11    2
     7     3    16    1
     8     3    17    1
     9    13     4    1
    10     4    33    1
    11    14     5    1
    12     5    34    1
    13    15     6    1
    14     6    37    1
    15     7    18    1
    16     7    43    1
    17     8    12    1
    18    12    21    2
    19    13    14    1
    20    13    15    1
    21    13    25    1
    22    14    16    1
    23    14    26    1
    24    15    17    1
    25    15    27    1
    26    16    18    1
    27    16    28    1
    28    17    29    1
    29    18    30    1
    30    18    31    1
    31    19    20    1
    32    19    22    1
    33    19    23    1
    34    19    32    1
    35    20    21    1
    36    20    35    1
    37    20    36    1
    38    22    24    1
    39    22    38    1
    40    22    39    1
    41    23    40    1
    42    23    41    1
    43    23    42    1
    44    24    44    1
    45    24    45    1
    46    24    46    1
