@<TRIPOS>MOLECULE
IMPHY005390
 30 29 0 0 0
SMALL
GASTEIGER

@<TRIPOS>ATOM
      1 O           7.1962    1.0000    0.0000 O.3     1  UNL1       -0.4574
      2 O           8.0622   -0.5000    0.0000 O.2     1  UNL1       -0.2511
      3 C           4.5981    0.5000    0.0000 C.3     1  UNL1       -0.0494
      4 C           5.4641    1.0000    0.0000 C.3     1  UNL1       -0.0120
      5 C           3.7320    1.0000    0.0000 C.3     1  UNL1       -0.0532
      6 C           6.3301    0.5000    0.0000 C.3     1  UNL1        0.1210
      7 C           2.8660    0.5000    0.0000 C.3     1  UNL1       -0.0559
      8 C           2.0000    1.0000    0.0000 C.3     1  UNL1       -0.0653
      9 C           6.3301   -0.5000    0.0000 C.2     1  UNL1       -0.0511
     10 C           8.0622    0.5000    0.0000 C.2     1  UNL1        0.3045
     11 C           5.4641   -1.0000    0.0000 C.2     1  UNL1       -0.0992
     12 C           8.9282    1.0000    0.0000 C.3     1  UNL1        0.0333
     13 H           4.1996    0.0251    0.0000 H       1  UNL1        0.0267
     14 H           4.9966    0.0251    0.0000 H       1  UNL1        0.0267
     15 H           5.8626    1.4750    0.0000 H       1  UNL1        0.0304
     16 H           5.0656    1.4750    0.0000 H       1  UNL1        0.0304
     17 H           4.1306    1.4750    0.0000 H       1  UNL1        0.0265
     18 H           3.3335    1.4750    0.0000 H       1  UNL1        0.0265
     19 H           6.8671    0.1900    0.0000 H       1  UNL1        0.0779
     20 H           2.4675    0.0251    0.0000 H       1  UNL1        0.0263
     21 H           3.2646    0.0251    0.0000 H       1  UNL1        0.0263
     22 H           2.3100    1.5369    0.0000 H       1  UNL1        0.0230
     23 H           1.4631    1.3100    0.0000 H       1  UNL1        0.0230
     24 H           1.6900    0.4631    0.0000 H       1  UNL1        0.0230
     25 H           6.8671   -0.8100    0.0000 H       1  UNL1        0.0603
     26 H           4.9272   -0.6900    0.0000 H       1  UNL1        0.0533
     27 H           5.4641   -1.6200    0.0000 H       1  UNL1        0.0533
     28 H           9.2382    0.4631    0.0000 H       1  UNL1        0.0342
     29 H           9.4651    1.3100    0.0000 H       1  UNL1        0.0342
     30 H           8.6182    1.5369    0.0000 H       1  UNL1        0.0342
@<TRIPOS>BOND
     1     1     6    1
     2     1    10    1
     3     2    10    2
     4     3     4    1
     5     3     5    1
     6     3    13    1
     7     3    14    1
     8     4     6    1
     9     4    15    1
    10     4    16    1
    11     5     7    1
    12     5    17    1
    13     5    18    1
    14     6     9    1
    15     6    19    1
    16     7     8    1
    17     7    20    1
    18     7    21    1
    19     8    22    1
    20     8    23    1
    21     8    24    1
    22     9    11    2
    23     9    25    1
    24    10    12    1
    25    11    26    1
    26    11    27    1
    27    12    28    1
    28    12    29    1
    29    12    30    1
