@<TRIPOS>MOLECULE
IMPHY017888
 40 42 0 0 0
SMALL
GASTEIGER

@<TRIPOS>ATOM
      1 O           4.4914    0.4951    0.0000 O.3     1  UNL1       -0.3666
      2 O           4.0623   -2.5121    0.0000 O.3     1  UNL1       -0.3946
      3 C           3.5675    0.1124    0.0000 C.3     1  UNL1        0.0783
      4 C           2.6436    0.4951    0.0000 C.3     1  UNL1       -0.0115
      5 C           3.6913    1.3677    0.0000 C.3     1  UNL1       -0.0177
      6 C           4.4914    2.3428    0.0000 C.3     1  UNL1       -0.0097
      7 C           3.4870   -0.8784    0.0000 C.3     1  UNL1        0.0116
      8 C           4.8741    1.4189    0.0000 C.3     1  UNL1        0.0676
      9 C           2.0000   -0.2625    0.0000 C.3     1  UNL1       -0.0472
     10 C           2.5201   -1.1097    0.0000 C.3     1  UNL1       -0.0451
     11 C           2.2610    1.4189    0.0000 C.3     1  UNL1       -0.0476
     12 C           3.5675    2.7255    0.0000 C.3     1  UNL1       -0.0475
     13 C           2.6436    2.3428    0.0000 C.3     1  UNL1       -0.0524
     14 C           4.2462   -1.5292    0.0000 C.3     1  UNL1        0.0496
     15 C           5.6831    0.8311    0.0000 C.3     1  UNL1       -0.0358
     16 C           5.6831    2.0067    0.0000 C.3     1  UNL1       -0.0358
     17 H           2.0311    0.5912    0.0000 H       1  UNL1        0.0329
     18 H           3.3639    1.8942    0.0000 H       1  UNL1        0.0297
     19 H           4.2641    1.1304    0.0000 H       1  UNL1        0.0297
     20 H           4.8167    3.1281    0.0000 H       1  UNL1        0.0329
     21 H           3.3414   -1.4811    0.0000 H       1  UNL1        0.0351
     22 H           1.5723    0.1863    0.0000 H       1  UNL1        0.0269
     23 H           1.5087   -0.6407    0.0000 H       1  UNL1        0.0269
     24 H           1.9606   -1.3768    0.0000 H       1  UNL1        0.0270
     25 H           2.7269   -1.6942    0.0000 H       1  UNL1        0.0270
     26 H           1.7691    1.7964    0.0000 H       1  UNL1        0.0269
     27 H           1.7691    1.0415    0.0000 H       1  UNL1        0.0269
     28 H           3.9450    3.2174    0.0000 H       1  UNL1        0.0269
     29 H           3.1901    3.2174    0.0000 H       1  UNL1        0.0269
     30 H           2.5627    2.9575    0.0000 H       1  UNL1        0.0265
     31 H           2.0289    2.4237    0.0000 H       1  UNL1        0.0265
     32 H           4.8266   -1.7473    0.0000 H       1  UNL1        0.0561
     33 H           4.5618   -0.9955    0.0000 H       1  UNL1        0.0561
     34 H           5.3187    0.3296    0.0000 H       1  UNL1        0.0257
     35 H           6.1847    0.4667    0.0000 H       1  UNL1        0.0257
     36 H           6.0475    1.3327    0.0000 H       1  UNL1        0.0257
     37 H           6.0475    1.5051    0.0000 H       1  UNL1        0.0257
     38 H           6.1847    2.3711    0.0000 H       1  UNL1        0.0257
     39 H           5.3187    2.5083    0.0000 H       1  UNL1        0.0257
     40 H           4.5330   -2.9156    0.0000 H       1  UNL1        0.2094
@<TRIPOS>BOND
     1     3     1    1
     2     1     8    1
     3     2    14    1
     4     2    40    1
     5     3     4    1
     6     3     5    1
     7     3     7    1
     8     4     9    1
     9     4    11    1
    10     4    17    1
    11     5     6    1
    12     5    18    1
    13     5    19    1
    14     6     8    1
    15     6    12    1
    16     6    20    1
    17     7    10    1
    18     7    14    1
    19     7    21    1
    20     8    15    1
    21     8    16    1
    22     9    10    1
    23     9    22    1
    24     9    23    1
    25    10    24    1
    26    10    25    1
    27    11    13    1
    28    11    26    1
    29    11    27    1
    30    12    13    1
    31    12    28    1
    32    12    29    1
    33    13    30    1
    34    13    31    1
    35    14    32    1
    36    14    33    1
    37    15    34    1
    38    15    35    1
    39    15    36    1
    40    16    37    1
    41    16    38    1
    42    16    39    1
