@<TRIPOS>MOLECULE
IMPHY007412
 161 160 0 0 0
SMALL
GASTEIGER

@<TRIPOS>ATOM
      1 O          20.1865    6.5000    0.0000 O.3     1  UNL1       -0.4544
      2 O          17.5885    6.0000    0.0000 O.3     1  UNL1       -0.4608
      3 O          18.4545    4.5000    0.0000 O.3     1  UNL1       -0.4608
      4 O          21.0526    5.0000    0.0000 O.2     1  UNL1       -0.2508
      5 O          16.7224    7.5000    0.0000 O.2     1  UNL1       -0.2509
      6 O          19.3205    3.0000    0.0000 O.2     1  UNL1       -0.2509
      7 C           9.7942    6.5000    0.0000 C.3     1  UNL1       -0.0531
      8 C           8.9282    6.0000    0.0000 C.3     1  UNL1       -0.0531
      9 C          10.6603    6.0000    0.0000 C.3     1  UNL1       -0.0531
     10 C           8.0622    6.5000    0.0000 C.3     1  UNL1       -0.0531
     11 C          11.5263    6.5000    0.0000 C.3     1  UNL1       -0.0531
     12 C           7.1962    6.0000    0.0000 C.3     1  UNL1       -0.0531
     13 C          12.3923    6.0000    0.0000 C.3     1  UNL1       -0.0531
     14 C           6.3301    6.5000    0.0000 C.3     1  UNL1       -0.0531
     15 C          27.1147    6.5000    0.0000 C.3     1  UNL1       -0.0531
     16 C          27.9808    6.0000    0.0000 C.3     1  UNL1       -0.0531
     17 C          14.9904   -1.5000    0.0000 C.3     1  UNL1       -0.0531
     18 C          14.9904   -2.5000    0.0000 C.3     1  UNL1       -0.0531
     19 C          26.2487    6.0000    0.0000 C.3     1  UNL1       -0.0531
     20 C          28.8468    6.5000    0.0000 C.3     1  UNL1       -0.0531
     21 C          15.8564   -1.0000    0.0000 C.3     1  UNL1       -0.0531
     22 C          14.1244   -3.0000    0.0000 C.3     1  UNL1       -0.0531
     23 C          25.3827    6.5000    0.0000 C.3     1  UNL1       -0.0531
     24 C          13.2583    6.5000    0.0000 C.3     1  UNL1       -0.0530
     25 C           5.4641    6.0000    0.0000 C.3     1  UNL1       -0.0531
     26 C          29.7128    6.0000    0.0000 C.3     1  UNL1       -0.0531
     27 C          15.8564    0.0000    0.0000 C.3     1  UNL1       -0.0531
     28 C          14.1244   -4.0000    0.0000 C.3     1  UNL1       -0.0531
     29 C          24.5167    6.0000    0.0000 C.3     1  UNL1       -0.0530
     30 C          30.5788    6.5000    0.0000 C.3     1  UNL1       -0.0531
     31 C          16.7224    0.5000    0.0000 C.3     1  UNL1       -0.0530
     32 C          13.2583   -4.5000    0.0000 C.3     1  UNL1       -0.0531
     33 C          14.1244    6.0000    0.0000 C.3     1  UNL1       -0.0526
     34 C           4.5981    6.5000    0.0000 C.3     1  UNL1       -0.0531
     35 C          23.6506    6.5000    0.0000 C.3     1  UNL1       -0.0526
     36 C          31.4449    6.0000    0.0000 C.3     1  UNL1       -0.0531
     37 C          16.7224    1.5000    0.0000 C.3     1  UNL1       -0.0526
     38 C          13.2583   -5.5000    0.0000 C.3     1  UNL1       -0.0531
     39 C          14.9904    6.5000    0.0000 C.3     1  UNL1       -0.0430
     40 C           3.7320    6.0000    0.0000 C.3     1  UNL1       -0.0533
     41 C          22.7846    6.0000    0.0000 C.3     1  UNL1       -0.0430
     42 C          32.3109    6.5000    0.0000 C.3     1  UNL1       -0.0533
     43 C          17.5885    2.0000    0.0000 C.3     1  UNL1       -0.0430
     44 C          12.3923   -6.0000    0.0000 C.3     1  UNL1       -0.0533
     45 C           2.8660    6.5000    0.0000 C.3     1  UNL1       -0.0559
     46 C          15.8564    6.0000    0.0000 C.3     1  UNL1        0.0449
     47 C          21.9186    6.5000    0.0000 C.3     1  UNL1        0.0450
     48 C          33.1769    6.0000    0.0000 C.3     1  UNL1       -0.0559
     49 C          17.5885    3.0000    0.0000 C.3     1  UNL1        0.0449
     50 C          12.3923   -7.0000    0.0000 C.3     1  UNL1       -0.0559
     51 C          19.3205    6.0000    0.0000 C.3     1  UNL1        0.1706
     52 C           2.0000    6.0000    0.0000 C.3     1  UNL1       -0.0653
     53 C          21.0526    6.0000    0.0000 C.2     1  UNL1        0.3075
     54 C          16.7224    6.5000    0.0000 C.2     1  UNL1        0.3072
     55 C          18.4545    6.5000    0.0000 C.3     1  UNL1        0.1325
     56 C          34.0429    6.5000    0.0000 C.3     1  UNL1       -0.0653
     57 C          18.4545    3.5000    0.0000 C.2     1  UNL1        0.3072
     58 C          11.5263   -7.5000    0.0000 C.3     1  UNL1       -0.0653
     59 C          19.3205    5.0000    0.0000 C.3     1  UNL1        0.1325
     60 H          10.1928    6.9750    0.0000 H       1  UNL1        0.0265
     61 H           9.3957    6.9750    0.0000 H       1  UNL1        0.0265
     62 H           8.5297    5.5250    0.0000 H       1  UNL1        0.0265
     63 H           9.3267    5.5250    0.0000 H       1  UNL1        0.0265
     64 H          10.2617    5.5250    0.0000 H       1  UNL1        0.0265
     65 H          11.0588    5.5250    0.0000 H       1  UNL1        0.0265
     66 H           8.4607    6.9750    0.0000 H       1  UNL1        0.0265
     67 H           7.6636    6.9750    0.0000 H       1  UNL1        0.0265
     68 H          11.9248    6.9750    0.0000 H       1  UNL1        0.0265
     69 H          11.1278    6.9750    0.0000 H       1  UNL1        0.0265
     70 H           6.7976    5.5250    0.0000 H       1  UNL1        0.0265
     71 H           7.5947    5.5250    0.0000 H       1  UNL1        0.0265
     72 H          11.9938    5.5250    0.0000 H       1  UNL1        0.0265
     73 H          12.7908    5.5250    0.0000 H       1  UNL1        0.0265
     74 H           6.7287    6.9750    0.0000 H       1  UNL1        0.0265
     75 H           5.9316    6.9750    0.0000 H       1  UNL1        0.0265
     76 H          27.5133    6.9750    0.0000 H       1  UNL1        0.0265
     77 H          26.7162    6.9750    0.0000 H       1  UNL1        0.0265
     78 H          27.5822    5.5250    0.0000 H       1  UNL1        0.0265
     79 H          28.3793    5.5250    0.0000 H       1  UNL1        0.0265
     80 H          14.7783   -0.9174    0.0000 H       1  UNL1        0.0265
     81 H          14.3798   -1.6077    0.0000 H       1  UNL1        0.0265
     82 H          15.2024   -3.0826    0.0000 H       1  UNL1        0.0265
     83 H          15.6010   -2.3923    0.0000 H       1  UNL1        0.0265
     84 H          25.8502    5.5250    0.0000 H       1  UNL1        0.0265
     85 H          26.6472    5.5250    0.0000 H       1  UNL1        0.0265
     86 H          29.2453    6.9750    0.0000 H       1  UNL1        0.0265
     87 H          28.4483    6.9750    0.0000 H       1  UNL1        0.0265
     88 H          16.0685   -1.5826    0.0000 H       1  UNL1        0.0265
     89 H          16.4670   -0.8923    0.0000 H       1  UNL1        0.0265
     90 H          13.9123   -2.4174    0.0000 H       1  UNL1        0.0265
     91 H          13.5138   -3.1077    0.0000 H       1  UNL1        0.0265
     92 H          25.7812    6.9750    0.0000 H       1  UNL1        0.0265
     93 H          24.9842    6.9750    0.0000 H       1  UNL1        0.0265
     94 H          13.6569    6.9750    0.0000 H       1  UNL1        0.0265
     95 H          12.8598    6.9750    0.0000 H       1  UNL1        0.0265
     96 H           5.0656    5.5250    0.0000 H       1  UNL1        0.0265
     97 H           5.8626    5.5250    0.0000 H       1  UNL1        0.0265
     98 H          29.3143    5.5250    0.0000 H       1  UNL1        0.0265
     99 H          30.1113    5.5250    0.0000 H       1  UNL1        0.0265
    100 H          15.6444    0.5826    0.0000 H       1  UNL1        0.0265
    101 H          15.2458   -0.1077    0.0000 H       1  UNL1        0.0265
    102 H          14.3364   -4.5826    0.0000 H       1  UNL1        0.0265
    103 H          14.7349   -3.8923    0.0000 H       1  UNL1        0.0265
    104 H          24.1181    5.5250    0.0000 H       1  UNL1        0.0265
    105 H          24.9152    5.5250    0.0000 H       1  UNL1        0.0265
    106 H          30.9774    6.9750    0.0000 H       1  UNL1        0.0265
    107 H          30.1803    6.9750    0.0000 H       1  UNL1        0.0265
    108 H          16.9345   -0.0826    0.0000 H       1  UNL1        0.0265
    109 H          17.3330    0.6077    0.0000 H       1  UNL1        0.0265
    110 H          13.0463   -3.9174    0.0000 H       1  UNL1        0.0265
    111 H          12.6477   -4.6077    0.0000 H       1  UNL1        0.0265
    112 H          13.7258    5.5250    0.0000 H       1  UNL1        0.0265
    113 H          14.5229    5.5250    0.0000 H       1  UNL1        0.0265
    114 H           4.9966    6.9750    0.0000 H       1  UNL1        0.0265
    115 H           4.1996    6.9750    0.0000 H       1  UNL1        0.0265
    116 H          24.0492    6.9750    0.0000 H       1  UNL1        0.0265
    117 H          23.2521    6.9750    0.0000 H       1  UNL1        0.0265
    118 H          31.0463    5.5250    0.0000 H       1  UNL1        0.0265
    119 H          31.8434    5.5250    0.0000 H       1  UNL1        0.0265
    120 H          16.5104    2.0826    0.0000 H       1  UNL1        0.0265
    121 H          16.1119    1.3923    0.0000 H       1  UNL1        0.0265
    122 H          13.4704   -6.0826    0.0000 H       1  UNL1        0.0265
    123 H          13.8689   -5.3923    0.0000 H       1  UNL1        0.0265
    124 H          15.3889    6.9750    0.0000 H       1  UNL1        0.0270
    125 H          14.5919    6.9750    0.0000 H       1  UNL1        0.0270
    126 H           3.3335    5.5250    0.0000 H       1  UNL1        0.0265
    127 H           4.1306    5.5250    0.0000 H       1  UNL1        0.0265
    128 H          22.3861    5.5250    0.0000 H       1  UNL1        0.0270
    129 H          23.1831    5.5250    0.0000 H       1  UNL1        0.0270
    130 H          32.7094    6.9750    0.0000 H       1  UNL1        0.0265
    131 H          31.9124    6.9750    0.0000 H       1  UNL1        0.0265
    132 H          17.8005    1.4174    0.0000 H       1  UNL1        0.0270
    133 H          18.1990    2.1077    0.0000 H       1  UNL1        0.0270
    134 H          12.1803   -5.4174    0.0000 H       1  UNL1        0.0265
    135 H          11.7817   -6.1077    0.0000 H       1  UNL1        0.0265
    136 H           3.2646    6.9750    0.0000 H       1  UNL1        0.0263
    137 H           2.4675    6.9750    0.0000 H       1  UNL1        0.0263
    138 H          15.4579    5.5250    0.0000 H       1  UNL1        0.0377
    139 H          16.2549    5.5250    0.0000 H       1  UNL1        0.0377
    140 H          22.3171    6.9750    0.0000 H       1  UNL1        0.0377
    141 H          21.5201    6.9750    0.0000 H       1  UNL1        0.0377
    142 H          32.7784    5.5250    0.0000 H       1  UNL1        0.0263
    143 H          33.5754    5.5250    0.0000 H       1  UNL1        0.0263
    144 H          17.3764    3.5826    0.0000 H       1  UNL1        0.0377
    145 H          16.9779    2.8923    0.0000 H       1  UNL1        0.0377
    146 H          12.6044   -7.5826    0.0000 H       1  UNL1        0.0263
    147 H          13.0029   -6.8923    0.0000 H       1  UNL1        0.0263
    148 H          19.8574    5.6900    0.0000 H       1  UNL1        0.0803
    149 H           1.6900    6.5369    0.0000 H       1  UNL1        0.0230
    150 H           1.4631    5.6900    0.0000 H       1  UNL1        0.0230
    151 H           2.3100    5.4631    0.0000 H       1  UNL1        0.0230
    152 H          18.8530    6.9750    0.0000 H       1  UNL1        0.0736
    153 H          18.0560    6.9750    0.0000 H       1  UNL1        0.0736
    154 H          34.3529    5.9631    0.0000 H       1  UNL1        0.0230
    155 H          34.5799    6.8100    0.0000 H       1  UNL1        0.0230
    156 H          33.7329    7.0369    0.0000 H       1  UNL1        0.0230
    157 H          11.2163   -6.9631    0.0000 H       1  UNL1        0.0230
    158 H          10.9893   -7.8100    0.0000 H       1  UNL1        0.0230
    159 H          11.8363   -8.0369    0.0000 H       1  UNL1        0.0230
    160 H          19.5326    4.4174    0.0000 H       1  UNL1        0.0736
    161 H          19.9311    5.1077    0.0000 H       1  UNL1        0.0736
@<TRIPOS>BOND
     1     1    51    1
     2     1    53    1
     3     2    54    1
     4     2    55    1
     5     3    57    1
     6     3    59    1
     7     4    53    2
     8     5    54    2
     9     6    57    2
    10     7     8    1
    11     7     9    1
    12     7    60    1
    13     7    61    1
    14     8    10    1
    15     8    62    1
    16     8    63    1
    17     9    11    1
    18     9    64    1
    19     9    65    1
    20    10    12    1
    21    10    66    1
    22    10    67    1
    23    11    13    1
    24    11    68    1
    25    11    69    1
    26    12    14    1
    27    12    70    1
    28    12    71    1
    29    13    24    1
    30    13    72    1
    31    13    73    1
    32    14    25    1
    33    14    74    1
    34    14    75    1
    35    15    16    1
    36    15    19    1
    37    15    76    1
    38    15    77    1
    39    16    20    1
    40    16    78    1
    41    16    79    1
    42    17    18    1
    43    17    21    1
    44    17    80    1
    45    17    81    1
    46    18    22    1
    47    18    82    1
    48    18    83    1
    49    19    23    1
    50    19    84    1
    51    19    85    1
    52    20    26    1
    53    20    86    1
    54    20    87    1
    55    21    27    1
    56    21    88    1
    57    21    89    1
    58    22    28    1
    59    22    90    1
    60    22    91    1
    61    23    29    1
    62    23    92    1
    63    23    93    1
    64    24    33    1
    65    24    94    1
    66    24    95    1
    67    25    34    1
    68    25    96    1
    69    25    97    1
    70    26    30    1
    71    26    98    1
    72    26    99    1
    73    27    31    1
    74    27   100    1
    75    27   101    1
    76    28    32    1
    77    28   102    1
    78    28   103    1
    79    29    35    1
    80    29   104    1
    81    29   105    1
    82    30    36    1
    83    30   106    1
    84    30   107    1
    85    31    37    1
    86    31   108    1
    87    31   109    1
    88    32    38    1
    89    32   110    1
    90    32   111    1
    91    33    39    1
    92    33   112    1
    93    33   113    1
    94    34    40    1
    95    34   114    1
    96    34   115    1
    97    35    41    1
    98    35   116    1
    99    35   117    1
   100    36    42    1
   101    36   118    1
   102    36   119    1
   103    37    43    1
   104    37   120    1
   105    37   121    1
   106    38    44    1
   107    38   122    1
   108    38   123    1
   109    39    46    1
   110    39   124    1
   111    39   125    1
   112    40    45    1
   113    40   126    1
   114    40   127    1
   115    41    47    1
   116    41   128    1
   117    41   129    1
   118    42    48    1
   119    42   130    1
   120    42   131    1
   121    43    49    1
   122    43   132    1
   123    43   133    1
   124    44    50    1
   125    44   134    1
   126    44   135    1
   127    45    52    1
   128    45   136    1
   129    45   137    1
   130    46    54    1
   131    46   138    1
   132    46   139    1
   133    47    53    1
   134    47   140    1
   135    47   141    1
   136    48    56    1
   137    48   142    1
   138    48   143    1
   139    49    57    1
   140    49   144    1
   141    49   145    1
   142    50    58    1
   143    50   146    1
   144    50   147    1
   145    51    55    1
   146    51    59    1
   147    51   148    1
   148    52   149    1
   149    52   150    1
   150    52   151    1
   151    55   152    1
   152    55   153    1
   153    56   154    1
   154    56   155    1
   155    56   156    1
   156    58   157    1
   157    58   158    1
   158    58   159    1
   159    59   160    1
   160    59   161    1
