@<TRIPOS>MOLECULE
IMPHY002371
 21 21 0 0 0
SMALL
GASTEIGER

@<TRIPOS>ATOM
      1 CZ          0.0000    0.0000    0.0000 C.ar    1  PHE1       -0.0000
      2 CE1         0.7145   -0.4125    0.0000 C.ar    1  PHE1       -0.0003
      3 CE2         0.0000    0.8250    0.0000 C.ar    1  PHE1       -0.0003
      4 CD1         1.4289    0.0000    0.0000 C.ar    1  PHE1       -0.0042
      5 CD2         0.7145    1.2375    0.0000 C.ar    1  PHE1       -0.0042
      6 CB          5.7158    0.8250    0.0000 C.3     1  PHE1        0.0405
      7 CG          5.0013    1.2375    0.0000 C.3     1  PHE1        0.0916
      8 CB          2.1434    1.2375    0.0000 C.3     1  PHE1        0.0624
      9 CG          1.4289    0.8250    0.0000 C.ar    1  PHE1       -0.0197
     10 CA          6.4302    1.2375    0.0000 C.3     1  PHE1        0.1948
     11 CA          2.8579    0.8250    0.0000 C.3     1  PHE1        0.2128
     12 CD          4.2868    0.8250    0.0000 C.2     1  PHE1        0.2520
     13 C           7.1447    0.8250    0.0000 C.2     1  PHE1        0.3819
     14 C           2.8579    0.0000    0.0000 C.2     1  PHE1        0.3870
     15 N           6.4302    2.0625    0.0000 N.3     1  PHE1       -0.1208
     16 N           3.5724    1.2375    0.0000 N.2     1  PHE1       -0.2278
     17 OE1         4.2868    0.0000    0.0000 O.2     1  PHE1       -0.2705
     18 O           7.8592    1.2375    0.0000 O.co2   1  PHE1       -0.2441
     19 OXT         7.1447    0.0000    0.0000 O.co2   1  PHE1       -0.2441
     20 O           3.5724   -0.4125    0.0000 O.co2   1  PHE1       -0.2435
     21 OXT         2.1434   -0.4125    0.0000 O.co2   1  PHE1       -0.2435
@<TRIPOS>BOND
     1     2     1   ar
     2     3     1   ar
     3     4     2   ar
     4     5     3   ar
     5     7     6    1
     6     9     4   ar
     7     9     5   ar
     8     9     8    1
     9    10     6    1
    10    11     8    1
    11    12     7    1
    12    13    10    1
    13    14    11    1
    14    15    10    1
    15    16    11    1
    16    16    12    2
    17    17    12    1
    18    18    13   ar
    19    19    13   ar
    20    20    14   ar
    21    21    14   ar
