@<TRIPOS>MOLECULE
IMPHY011182
 25 24 0 0 0
SMALL
GASTEIGER

@<TRIPOS>ATOM
      1 O           5.1350   -1.2500    0.0000 O.3     1  UNL1       -0.3865
      2 O           6.0010    1.2500    0.0000 O.3     1  UNL1       -0.3866
      3 O           4.2690    1.2500    0.0000 O.3     1  UNL1       -0.3869
      4 O           7.7331    0.2500    0.0000 O.3     1  UNL1       -0.3894
      5 O           2.5369    0.2500    0.0000 O.3     1  UNL1       -0.3924
      6 C           5.1350   -0.2500    0.0000 C.3     1  UNL1        0.1113
      7 C           6.0010    0.2500    0.0000 C.3     1  UNL1        0.1090
      8 C           4.2690    0.2500    0.0000 C.3     1  UNL1        0.1065
      9 C           6.8671   -0.2500    0.0000 C.3     1  UNL1        0.0808
     10 C           3.4030   -0.2500    0.0000 C.3     1  UNL1        0.0727
     11 C           6.8671   -1.2500    0.0000 C.3     1  UNL1       -0.0364
     12 H           5.6720   -0.5600    0.0000 H       1  UNL1        0.0647
     13 H           6.5380    0.5600    0.0000 H       1  UNL1        0.0646
     14 H           4.8059    0.5600    0.0000 H       1  UNL1        0.0643
     15 H           7.4040   -0.5600    0.0000 H       1  UNL1        0.0617
     16 H           3.0044   -0.7249    0.0000 H       1  UNL1        0.0584
     17 H           3.8015   -0.7249    0.0000 H       1  UNL1        0.0584
     18 H           6.2471   -1.2500    0.0000 H       1  UNL1        0.0255
     19 H           6.8671   -1.8700    0.0000 H       1  UNL1        0.0255
     20 H           7.4871   -1.2500    0.0000 H       1  UNL1        0.0255
     21 H           4.5981   -1.5600    0.0000 H       1  UNL1        0.2100
     22 H           6.5380    1.5600    0.0000 H       1  UNL1        0.2100
     23 H           3.7320    1.5600    0.0000 H       1  UNL1        0.2100
     24 H           8.2700   -0.0600    0.0000 H       1  UNL1        0.2099
     25 H           2.0000   -0.0600    0.0000 H       1  UNL1        0.2095
@<TRIPOS>BOND
     1     6     1    1
     2     1    21    1
     3     7     2    1
     4     2    22    1
     5     8     3    1
     6     3    23    1
     7     9     4    1
     8     4    24    1
     9     5    10    1
    10     5    25    1
    11     6     7    1
    12     6     8    1
    13     6    12    1
    14     7     9    1
    15     7    13    1
    16     8    10    1
    17     8    14    1
    18     9    11    1
    19     9    15    1
    20    10    16    1
    21    10    17    1
    22    11    18    1
    23    11    19    1
    24    11    20    1
