@<TRIPOS>MOLECULE
IMPHY016547
 24 24 0 0 0
SMALL
GASTEIGER

@<TRIPOS>ATOM
      1 C           3.0000   -0.0777    0.0000 C.3     1  UNL1       -0.0410
      2 C           3.0000   -1.0777    0.0000 C.3     1  UNL1       -0.0502
      3 C           2.0000   -0.0777    0.0000 C.3     1  UNL1       -0.0502
      4 C           2.0000   -1.0777    0.0000 C.3     1  UNL1       -0.0526
      5 C           3.7071    0.6294    0.0000 C.3     1  UNL1       -0.0502
      6 C           4.6730    0.3706    0.0000 C.3     1  UNL1       -0.0531
      7 C           5.3801    1.0777    0.0000 C.3     1  UNL1       -0.0559
      8 C           6.3461    0.8189    0.0000 C.3     1  UNL1       -0.0653
      9 H           3.5728   -0.3150    0.0000 H       1  UNL1        0.0301
     10 H           3.0000   -1.6977    0.0000 H       1  UNL1        0.0268
     11 H           3.6200   -1.0777    0.0000 H       1  UNL1        0.0268
     12 H           2.0000    0.5423    0.0000 H       1  UNL1        0.0268
     13 H           1.3800   -0.0777    0.0000 H       1  UNL1        0.0268
     14 H           1.3800   -1.0777    0.0000 H       1  UNL1        0.0265
     15 H           2.0000   -1.6977    0.0000 H       1  UNL1        0.0265
     16 H           3.9691    1.1913    0.0000 H       1  UNL1        0.0268
     17 H           3.1992    0.9850    0.0000 H       1  UNL1        0.0268
     18 H           4.4110   -0.1913    0.0000 H       1  UNL1        0.0265
     19 H           5.1809    0.0150    0.0000 H       1  UNL1        0.0265
     20 H           5.6422    1.6396    0.0000 H       1  UNL1        0.0263
     21 H           4.8723    1.4333    0.0000 H       1  UNL1        0.0263
     22 H           6.1856    0.2200    0.0000 H       1  UNL1        0.0230
     23 H           6.9449    0.6584    0.0000 H       1  UNL1        0.0230
     24 H           6.5065    1.4178    0.0000 H       1  UNL1        0.0230
@<TRIPOS>BOND
     1     1     2    1
     2     1     3    1
     3     1     5    1
     4     1     9    1
     5     2     4    1
     6     2    10    1
     7     2    11    1
     8     3     4    1
     9     3    12    1
    10     3    13    1
    11     4    14    1
    12     4    15    1
    13     5     6    1
    14     5    16    1
    15     5    17    1
    16     6     7    1
    17     6    18    1
    18     6    19    1
    19     7     8    1
    20     7    20    1
    21     7    21    1
    22     8    22    1
    23     8    23    1
    24     8    24    1
