@<TRIPOS>MOLECULE
IMPHY016475
 41 41 0 0 0
SMALL
GASTEIGER

@<TRIPOS>ATOM
      1 C           2.8660   -0.2500    0.0000 C.3     1  UNL1       -0.0436
      2 C           2.8660    0.7500    0.0000 C.3     1  UNL1       -0.0504
      3 C           3.7320    1.2500    0.0000 C.3     1  UNL1       -0.0523
      4 C           3.7320   -0.7500    0.0000 C.3     1  UNL1       -0.0465
      5 C           4.5981    0.7500    0.0000 C.3     1  UNL1       -0.0470
      6 C           5.4641    1.2500    0.0000 C.3     1  UNL1       -0.0254
      7 C           4.5981   -0.2500    0.0000 C.3     1  UNL1       -0.0275
      8 C           2.0000   -0.7500    0.0000 C.3     1  UNL1       -0.0624
      9 C           5.4641   -0.7500    0.0000 C.2     1  UNL1       -0.0489
     10 C           6.3301    0.7500    0.0000 C.2     1  UNL1       -0.0809
     11 C           5.4641    2.2500    0.0000 C.3     1  UNL1       -0.0589
     12 C           6.3301   -0.2500    0.0000 C.2     1  UNL1       -0.0623
     13 C           5.4641   -1.7500    0.0000 C.2     1  UNL1       -0.0725
     14 C           6.3301   -2.2500    0.0000 C.3     1  UNL1       -0.0435
     15 C           4.5981   -2.2500    0.0000 C.3     1  UNL1       -0.0435
     16 H           2.8660   -0.8700    0.0000 H       1  UNL1        0.0298
     17 H           2.6540    1.3326    0.0000 H       1  UNL1        0.0268
     18 H           2.2554    0.6423    0.0000 H       1  UNL1        0.0268
     19 H           4.1306    1.7250    0.0000 H       1  UNL1        0.0266
     20 H           3.3335    1.7250    0.0000 H       1  UNL1        0.0266
     21 H           3.3335   -1.2250    0.0000 H       1  UNL1        0.0271
     22 H           4.1306   -1.2250    0.0000 H       1  UNL1        0.0271
     23 H           4.1996    0.2751    0.0000 H       1  UNL1        0.0271
     24 H           4.9966    0.2751    0.0000 H       1  UNL1        0.0271
     25 H           6.0010    1.5600    0.0000 H       1  UNL1        0.0340
     26 H           4.9966    0.2249    0.0000 H       1  UNL1        0.0313
     27 H           4.1996    0.2249    0.0000 H       1  UNL1        0.0313
     28 H           1.6900   -0.2131    0.0000 H       1  UNL1        0.0232
     29 H           1.4631   -1.0600    0.0000 H       1  UNL1        0.0232
     30 H           2.3100   -1.2869    0.0000 H       1  UNL1        0.0232
     31 H           6.8671    1.0600    0.0000 H       1  UNL1        0.0575
     32 H           6.0841    2.2500    0.0000 H       1  UNL1        0.0235
     33 H           5.4641    2.8700    0.0000 H       1  UNL1        0.0235
     34 H           4.8441    2.2500    0.0000 H       1  UNL1        0.0235
     35 H           6.8671   -0.5600    0.0000 H       1  UNL1        0.0617
     36 H           6.0201   -2.7869    0.0000 H       1  UNL1        0.0274
     37 H           6.8671   -2.5600    0.0000 H       1  UNL1        0.0274
     38 H           6.6401   -1.7131    0.0000 H       1  UNL1        0.0274
     39 H           4.2881   -1.7131    0.0000 H       1  UNL1        0.0274
     40 H           4.0611   -2.5600    0.0000 H       1  UNL1        0.0274
     41 H           4.9081   -2.7869    0.0000 H       1  UNL1        0.0274
@<TRIPOS>BOND
     1     1     2    1
     2     1     4    1
     3     1     8    1
     4     1    16    1
     5     2     3    1
     6     2    17    1
     7     2    18    1
     8     3     5    1
     9     3    19    1
    10     3    20    1
    11     4     7    1
    12     4    21    1
    13     4    22    1
    14     5     6    1
    15     5    23    1
    16     5    24    1
    17     6    10    1
    18     6    11    1
    19     6    25    1
    20     7     9    1
    21     7    26    1
    22     7    27    1
    23     8    28    1
    24     8    29    1
    25     8    30    1
    26     9    12    1
    27     9    13    2
    28    10    12    2
    29    10    31    1
    30    11    32    1
    31    11    33    1
    32    11    34    1
    33    12    35    1
    34    13    14    1
    35    13    15    1
    36    14    36    1
    37    14    37    1
    38    14    38    1
    39    15    39    1
    40    15    40    1
    41    15    41    1
