@<TRIPOS>MOLECULE
IMPHY006774
 27 26 0 0 0
SMALL
GASTEIGER

@<TRIPOS>ATOM
      1 O           2.5369   -0.8660    0.0000 O.3     1  UNL1       -0.3845
      2 C           3.4030   -0.3660    0.0000 C.3     1  UNL1        0.0845
      3 C           4.2690    0.1340    0.0000 C.3     1  UNL1       -0.0021
      4 C           3.9030   -1.2320    0.0000 C.3     1  UNL1       -0.0322
      5 C           2.9030    0.5000    0.0000 C.2     1  UNL1       -0.0599
      6 C           5.1350   -0.3660    0.0000 C.2     1  UNL1       -0.0808
      7 C           6.0010    0.1340    0.0000 C.2     1  UNL1       -0.0632
      8 C           6.8671   -0.3660    0.0000 C.2     1  UNL1       -0.0578
      9 C           3.4030    1.3660    0.0000 C.2     1  UNL1       -0.1000
     10 C           7.7331    0.1340    0.0000 C.3     1  UNL1       -0.0403
     11 C           6.8671   -1.3660    0.0000 C.2     1  UNL1       -0.0958
     12 H           4.6675    0.6089    0.0000 H       1  UNL1        0.0338
     13 H           3.8705    0.6089    0.0000 H       1  UNL1        0.0338
     14 H           3.3660   -1.5420    0.0000 H       1  UNL1        0.0260
     15 H           4.2130   -1.7690    0.0000 H       1  UNL1        0.0260
     16 H           4.4399   -0.9221    0.0000 H       1  UNL1        0.0260
     17 H           2.2830    0.5000    0.0000 H       1  UNL1        0.0594
     18 H           5.1350   -0.9860    0.0000 H       1  UNL1        0.0573
     19 H           2.0000   -0.5560    0.0000 H       1  UNL1        0.2106
     20 H           6.0010    0.7540    0.0000 H       1  UNL1        0.0617
     21 H           4.0230    1.3660    0.0000 H       1  UNL1        0.0533
     22 H           3.0930    1.9030    0.0000 H       1  UNL1        0.0533
     23 H           8.0431   -0.4030    0.0000 H       1  UNL1        0.0277
     24 H           8.2700    0.4440    0.0000 H       1  UNL1        0.0277
     25 H           7.4231    0.6709    0.0000 H       1  UNL1        0.0277
     26 H           6.3301   -1.6760    0.0000 H       1  UNL1        0.0537
     27 H           7.4040   -1.6760    0.0000 H       1  UNL1        0.0537
@<TRIPOS>BOND
     1     2     1    1
     2     1    19    1
     3     2     3    1
     4     2     4    1
     5     2     5    1
     6     3     6    1
     7     3    12    1
     8     3    13    1
     9     4    14    1
    10     4    15    1
    11     4    16    1
    12     5     9    2
    13     5    17    1
    14     6     7    2
    15     6    18    1
    16     7     8    1
    17     7    20    1
    18     8    10    1
    19     8    11    2
    20     9    21    1
    21     9    22    1
    22    10    23    1
    23    10    24    1
    24    10    25    1
    25    11    26    1
    26    11    27    1
