@<TRIPOS>MOLECULE
IMPHY004651
 13 13 0 0 0
SMALL
GASTEIGER

@<TRIPOS>ATOM
      1 S           2.8090   -0.4197    0.0000 S.2     1  UNL1       -0.0729
      2 O           5.3122    0.5282    0.0000 O.2     1  UNL1       -0.2902
      3 N           3.3090    1.1191    0.0000 N.ar    1  UNL1       -0.2444
      4 C           3.6180    0.1681    0.0000 C.ar    1  UNL1        0.1431
      5 C           4.5691   -0.1410    0.0000 C.2     1  UNL1        0.1849
      6 C           4.7770   -1.1191    0.0000 C.3     1  UNL1        0.0007
      7 C           2.0000    0.1681    0.0000 C.ar    1  UNL1       -0.0041
      8 C           2.3090    1.1191    0.0000 C.ar    1  UNL1        0.0355
      9 H           4.1706   -1.2480    0.0000 H       1  UNL1        0.0310
     10 H           4.9059   -1.7256    0.0000 H       1  UNL1        0.0310
     11 H           5.3834   -0.9902    0.0000 H       1  UNL1        0.0310
     12 H           1.4103   -0.0235    0.0000 H       1  UNL1        0.0709
     13 H           1.9446    1.6207    0.0000 H       1  UNL1        0.0835
@<TRIPOS>BOND
     1     1     4   ar
     2     1     7   ar
     3     2     5    2
     4     3     4   ar
     5     3     8   ar
     6     4     5    1
     7     5     6    1
     8     6     9    1
     9     6    10    1
    10     6    11    1
    11     7     8   ar
    12     7    12    1
    13     8    13    1
