@<TRIPOS>MOLECULE
IMPHY013176
 37 38 0 0 0
SMALL
GASTEIGER

@<TRIPOS>ATOM
      1 O           6.0010    1.7500    0.0000 O.3     1  UNL1       -0.4568
      2 O           4.2690   -4.2500    0.0000 O.3     1  UNL1       -0.4915
      3 O           2.5369   -3.2500    0.0000 O.3     1  UNL1       -0.5033
      4 O           4.2690    1.7500    0.0000 O.2     1  UNL1       -0.2456
      5 C           4.2690   -1.2500    0.0000 C.ar    1  UNL1       -0.0211
      6 C           6.8671    3.2500    0.0000 C.ar    1  UNL1       -0.0103
      7 C           6.0010    2.7500    0.0000 C.3     1  UNL1        0.1178
      8 C           3.4030   -1.7500    0.0000 C.ar    1  UNL1       -0.0094
      9 C           4.2690   -3.2500    0.0000 C.ar    1  UNL1        0.1613
     10 C           5.1350   -1.7500    0.0000 C.ar    1  UNL1       -0.0509
     11 C           3.4030   -2.7500    0.0000 C.ar    1  UNL1        0.1590
     12 C           5.1350   -2.7500    0.0000 C.ar    1  UNL1       -0.0158
     13 C           7.7331    2.7500    0.0000 C.ar    1  UNL1       -0.0554
     14 C           6.8671    4.2500    0.0000 C.ar    1  UNL1       -0.0554
     15 C           4.2690   -0.2500    0.0000 C.2     1  UNL1       -0.0477
     16 C           8.5991    3.2500    0.0000 C.ar    1  UNL1       -0.0614
     17 C           7.7331    4.7500    0.0000 C.ar    1  UNL1       -0.0614
     18 C           5.1350    0.2500    0.0000 C.2     1  UNL1        0.0231
     19 C           8.5991    4.2500    0.0000 C.ar    1  UNL1       -0.0617
     20 C           5.1350    1.2500    0.0000 C.2     1  UNL1        0.3323
     21 C           5.1350   -4.7500    0.0000 C.3     1  UNL1        0.0790
     22 H           5.7890    3.3326    0.0000 H       1  UNL1        0.0749
     23 H           5.3905    2.6423    0.0000 H       1  UNL1        0.0749
     24 H           2.8660   -1.4400    0.0000 H       1  UNL1        0.0661
     25 H           5.6720   -1.4400    0.0000 H       1  UNL1        0.0625
     26 H           5.6720   -3.0600    0.0000 H       1  UNL1        0.0655
     27 H           7.7331    2.1300    0.0000 H       1  UNL1        0.0621
     28 H           6.3301    4.5600    0.0000 H       1  UNL1        0.0621
     29 H           3.7320    0.0600    0.0000 H       1  UNL1        0.0626
     30 H           9.1360    2.9400    0.0000 H       1  UNL1        0.0618
     31 H           7.7331    5.3700    0.0000 H       1  UNL1        0.0618
     32 H           5.6720   -0.0600    0.0000 H       1  UNL1        0.0689
     33 H           9.1360    4.5600    0.0000 H       1  UNL1        0.0618
     34 H           2.0000   -2.9400    0.0000 H       1  UNL1        0.2923
     35 H           4.8250   -5.2869    0.0000 H       1  UNL1        0.0660
     36 H           5.6720   -5.0600    0.0000 H       1  UNL1        0.0660
     37 H           5.4450   -4.2131    0.0000 H       1  UNL1        0.0660
@<TRIPOS>BOND
     1     1     7    1
     2     1    20    1
     3     2     9    1
     4     2    21    1
     5     3    11    1
     6     3    34    1
     7     4    20    2
     8     5     8   ar
     9     5    10   ar
    10     5    15    1
    11     6     7    1
    12     6    13   ar
    13     6    14   ar
    14     7    22    1
    15     7    23    1
    16     8    11   ar
    17     8    24    1
    18     9    11   ar
    19     9    12   ar
    20    10    12   ar
    21    10    25    1
    22    12    26    1
    23    13    16   ar
    24    13    27    1
    25    14    17   ar
    26    14    28    1
    27    15    18    2
    28    15    29    1
    29    16    19   ar
    30    16    30    1
    31    17    19   ar
    32    17    31    1
    33    18    20    1
    34    18    32    1
    35    19    33    1
    36    21    35    1
    37    21    36    1
    38    21    37    1
