@<TRIPOS>MOLECULE
IMPHY004012
 55 57 0 0 0
SMALL
GASTEIGER

@<TRIPOS>ATOM
      1 O           5.0366   -0.0587    0.0000 O.3     1  UNL1       -0.3636
      2 O           4.9836    4.3375    0.0000 O.3     1  UNL1       -0.4914
      3 O           4.1136   -3.6465    0.0000 O.3     1  UNL1       -0.4914
      4 O           2.9945    4.1284    0.0000 O.3     1  UNL1       -0.4915
      5 O           5.8457   -4.6465    0.0000 O.3     1  UNL1       -0.4915
      6 C           6.3457    0.8924    0.0000 C.3     1  UNL1       -0.0081
      7 C           6.6547   -0.0587    0.0000 C.3     1  UNL1       -0.0081
      8 C           5.3457    0.8924    0.0000 C.3     1  UNL1        0.0874
      9 C           5.8457   -0.6465    0.0000 C.3     1  UNL1        0.0874
     10 C           6.9334    1.7014    0.0000 C.3     1  UNL1       -0.0594
     11 C           7.6057   -0.3677    0.0000 C.3     1  UNL1       -0.0594
     12 C           4.7579    1.7014    0.0000 C.ar    1  UNL1       -0.0149
     13 C           5.8457   -1.6465    0.0000 C.ar    1  UNL1       -0.0149
     14 C           5.1646    2.6149    0.0000 C.ar    1  UNL1       -0.0107
     15 C           4.9796   -2.1465    0.0000 C.ar    1  UNL1       -0.0107
     16 C           3.7634    1.5968    0.0000 C.ar    1  UNL1       -0.0524
     17 C           6.7117   -2.1465    0.0000 C.ar    1  UNL1       -0.0524
     18 C           4.5768    3.4239    0.0000 C.ar    1  UNL1        0.1618
     19 C           4.9796   -3.1465    0.0000 C.ar    1  UNL1        0.1618
     20 C           3.1756    2.4059    0.0000 C.ar    1  UNL1       -0.0160
     21 C           6.7117   -3.1465    0.0000 C.ar    1  UNL1       -0.0160
     22 C           3.5823    3.3194    0.0000 C.ar    1  UNL1        0.1615
     23 C           5.8457   -3.6465    0.0000 C.ar    1  UNL1        0.1615
     24 C           4.3958    5.1465    0.0000 C.3     1  UNL1        0.0790
     25 C           4.1136   -4.6465    0.0000 C.3     1  UNL1        0.0790
     26 C           2.0000    4.0239    0.0000 C.3     1  UNL1        0.0790
     27 C           6.7117   -5.1465    0.0000 C.3     1  UNL1        0.0790
     28 H           6.9580    0.7954    0.0000 H       1  UNL1        0.0330
     29 H           6.7517   -0.6711    0.0000 H       1  UNL1        0.0330
     30 H           5.6271    1.4448    0.0000 H       1  UNL1        0.0649
     31 H           6.3981   -0.9280    0.0000 H       1  UNL1        0.0649
     32 H           7.4350    1.3369    0.0000 H       1  UNL1        0.0233
     33 H           7.2979    2.2030    0.0000 H       1  UNL1        0.0233
     34 H           6.4319    2.0658    0.0000 H       1  UNL1        0.0233
     35 H           7.4142   -0.9574    0.0000 H       1  UNL1        0.0233
     36 H           8.1954   -0.5593    0.0000 H       1  UNL1        0.0233
     37 H           7.7973    0.2219    0.0000 H       1  UNL1        0.0233
     38 H           5.7812    2.6797    0.0000 H       1  UNL1        0.0659
     39 H           4.4427   -1.8365    0.0000 H       1  UNL1        0.0659
     40 H           3.5112    1.0304    0.0000 H       1  UNL1        0.0622
     41 H           7.2486   -1.8365    0.0000 H       1  UNL1        0.0622
     42 H           2.5590    2.3410    0.0000 H       1  UNL1        0.0655
     43 H           7.2486   -3.4565    0.0000 H       1  UNL1        0.0655
     44 H           4.8974    5.5109    0.0000 H       1  UNL1        0.0660
     45 H           4.0314    5.6481    0.0000 H       1  UNL1        0.0660
     46 H           3.8942    4.7821    0.0000 H       1  UNL1        0.0660
     47 H           3.4936   -4.6465    0.0000 H       1  UNL1        0.0660
     48 H           4.1136   -5.2665    0.0000 H       1  UNL1        0.0660
     49 H           4.7336   -4.6465    0.0000 H       1  UNL1        0.0660
     50 H           1.9352    4.6405    0.0000 H       1  UNL1        0.0660
     51 H           1.3834    3.9591    0.0000 H       1  UNL1        0.0660
     52 H           2.0648    3.4073    0.0000 H       1  UNL1        0.0660
     53 H           6.4017   -5.6834    0.0000 H       1  UNL1        0.0660
     54 H           7.2486   -5.4565    0.0000 H       1  UNL1        0.0660
     55 H           7.0217   -4.6096    0.0000 H       1  UNL1        0.0660
@<TRIPOS>BOND
     1     1     8    1
     2     1     9    1
     3     2    18    1
     4     2    24    1
     5     3    19    1
     6     3    25    1
     7     4    22    1
     8     4    26    1
     9     5    23    1
    10     5    27    1
    11     6     7    1
    12     6     8    1
    13     6    10    1
    14     6    28    1
    15     7     9    1
    16     7    11    1
    17     7    29    1
    18     8    12    1
    19     8    30    1
    20     9    13    1
    21     9    31    1
    22    10    32    1
    23    10    33    1
    24    10    34    1
    25    11    35    1
    26    11    36    1
    27    11    37    1
    28    12    14   ar
    29    12    16   ar
    30    13    15   ar
    31    13    17   ar
    32    14    18   ar
    33    14    38    1
    34    15    19   ar
    35    15    39    1
    36    16    20   ar
    37    16    40    1
    38    17    21   ar
    39    17    41    1
    40    18    22   ar
    41    19    23   ar
    42    20    22   ar
    43    20    42    1
    44    21    23   ar
    45    21    43    1
    46    24    44    1
    47    24    45    1
    48    24    46    1
    49    25    47    1
    50    25    48    1
    51    25    49    1
    52    26    50    1
    53    26    51    1
    54    26    52    1
    55    27    53    1
    56    27    54    1
    57    27    55    1
