@<TRIPOS>MOLECULE
IMPHY006992
 29 28 0 0 0
SMALL
GASTEIGER

@<TRIPOS>ATOM
      1 O           7.1962    0.7500    0.0000 O.3     1  UNL1       -0.4618
      2 O           8.0622   -0.7500    0.0000 O.2     1  UNL1       -0.2512
      3 C           4.5981    0.2500    0.0000 C.3     1  UNL1       -0.0497
      4 C           5.4641    0.7500    0.0000 C.3     1  UNL1       -0.0159
      5 C           3.7320    0.7500    0.0000 C.3     1  UNL1       -0.0532
      6 C           6.3301    0.2500    0.0000 C.3     1  UNL1        0.1003
      7 C           2.8660    0.2500    0.0000 C.3     1  UNL1       -0.0559
      8 C           6.3301   -0.7500    0.0000 C.3     1  UNL1       -0.0277
      9 C           2.0000    0.7500    0.0000 C.3     1  UNL1       -0.0653
     10 C           8.0622    0.2500    0.0000 C.2     1  UNL1        0.3042
     11 C           8.9282    0.7500    0.0000 C.3     1  UNL1        0.0332
     12 H           4.1996   -0.2249    0.0000 H       1  UNL1        0.0266
     13 H           4.9966   -0.2249    0.0000 H       1  UNL1        0.0266
     14 H           5.8626    1.2250    0.0000 H       1  UNL1        0.0301
     15 H           5.0656    1.2250    0.0000 H       1  UNL1        0.0301
     16 H           4.1306    1.2250    0.0000 H       1  UNL1        0.0265
     17 H           3.3335    1.2250    0.0000 H       1  UNL1        0.0265
     18 H           6.8671   -0.0600    0.0000 H       1  UNL1        0.0731
     19 H           2.4675   -0.2249    0.0000 H       1  UNL1        0.0263
     20 H           3.2646   -0.2249    0.0000 H       1  UNL1        0.0263
     21 H           5.7101   -0.7500    0.0000 H       1  UNL1        0.0265
     22 H           6.3301   -1.3700    0.0000 H       1  UNL1        0.0265
     23 H           6.9501   -0.7500    0.0000 H       1  UNL1        0.0265
     24 H           2.3100    1.2869    0.0000 H       1  UNL1        0.0230
     25 H           1.4631    1.0600    0.0000 H       1  UNL1        0.0230
     26 H           1.6900    0.2131    0.0000 H       1  UNL1        0.0230
     27 H           9.2382    0.2131    0.0000 H       1  UNL1        0.0342
     28 H           9.4651    1.0600    0.0000 H       1  UNL1        0.0342
     29 H           8.6182    1.2869    0.0000 H       1  UNL1        0.0342
@<TRIPOS>BOND
     1     1     6    1
     2     1    10    1
     3     2    10    2
     4     3     4    1
     5     3     5    1
     6     3    12    1
     7     3    13    1
     8     4     6    1
     9     4    14    1
    10     4    15    1
    11     5     7    1
    12     5    16    1
    13     5    17    1
    14     6     8    1
    15     6    18    1
    16     7     9    1
    17     7    19    1
    18     7    20    1
    19     8    21    1
    20     8    22    1
    21     8    23    1
    22     9    24    1
    23     9    25    1
    24     9    26    1
    25    10    11    1
    26    11    27    1
    27    11    28    1
    28    11    29    1
