@<TRIPOS>MOLECULE
IMPHY013440
 95 100 0 0 0
SMALL
GASTEIGER

@<TRIPOS>ATOM
      1 O          10.4037   -0.2500    0.0000 O.3     1  UNL1       -0.3313
      2 O           7.8056   -2.7500    0.0000 O.3     1  UNL1       -0.3405
      3 O           9.5376   -2.7500    0.0000 O.3     1  UNL1       -0.3460
      4 O          11.2697   -2.7500    0.0000 O.3     1  UNL1       -0.3865
      5 O          11.2697    1.2500    0.0000 O.3     1  UNL1       -0.4532
      6 O          13.0017   -1.7500    0.0000 O.3     1  UNL1       -0.3864
      7 O           4.2755    3.2808    0.0000 O.3     1  UNL1       -0.3313
      8 O          13.0017    0.2500    0.0000 O.3     1  UNL1       -0.3829
      9 O           9.5376   -4.7500    0.0000 O.3     1  UNL1       -0.3841
     10 O           7.8056   -5.7500    0.0000 O.3     1  UNL1       -0.3864
     11 O           6.0736   -4.7500    0.0000 O.3     1  UNL1       -0.3865
     12 O           6.0075    3.2742    0.0000 O.3     1  UNL1       -0.4606
     13 O           4.2639    0.2808    0.0000 O.3     1  UNL1       -0.3864
     14 O           2.5357    1.2875    0.0000 O.3     1  UNL1       -0.3865
     15 O           5.9998    1.2742    0.0000 O.3     1  UNL1       -0.3829
     16 O           6.0736   -1.7500    0.0000 O.3     1  UNL1       -0.3924
     17 O           2.5473    4.2875    0.0000 O.3     1  UNL1       -0.3924
     18 O           9.5376    3.2500    0.0000 O.2     1  UNL1       -0.4507
     19 O           9.5376    0.2500    0.0000 O.2     1  UNL1       -0.2830
     20 O           7.7892    0.2154    0.0000 O.3     1  UNL1       -0.5058
     21 O          12.1357    5.7500    0.0000 O.3     1  UNL1       -0.5033
     22 O          13.8678    4.7500    0.0000 O.3     1  UNL1       -0.5033
     23 C          10.4037   -1.2500    0.0000 C.3     1  UNL1        0.1144
     24 C          11.2697   -1.7500    0.0000 C.3     1  UNL1        0.1120
     25 C          12.1357   -1.2500    0.0000 C.3     1  UNL1        0.1152
     26 C          12.1357   -0.2500    0.0000 C.3     1  UNL1        0.1454
     27 C           8.6716   -4.2500    0.0000 C.3     1  UNL1        0.1341
     28 C           8.6716   -3.2500    0.0000 C.3     1  UNL1        0.1880
     29 C           7.8056   -4.7500    0.0000 C.3     1  UNL1        0.1141
     30 C           6.9396   -4.2500    0.0000 C.3     1  UNL1        0.1119
     31 C           6.9396   -3.2500    0.0000 C.3     1  UNL1        0.1130
     32 C          11.2697    0.2500    0.0000 C.3     1  UNL1        0.2311
     33 C           9.5376   -1.7500    0.0000 C.3     1  UNL1        0.0796
     34 C           4.2678    1.2808    0.0000 C.3     1  UNL1        0.1152
     35 C           3.4037    1.7842    0.0000 C.3     1  UNL1        0.1120
     36 C           5.1357    1.7775    0.0000 C.3     1  UNL1        0.1454
     37 C           3.4075    2.7842    0.0000 C.3     1  UNL1        0.1140
     38 C           6.0736   -2.7500    0.0000 C.3     1  UNL1        0.0730
     39 C           5.1396    2.7775    0.0000 C.3     1  UNL1        0.2308
     40 C           2.5434    3.2875    0.0000 C.3     1  UNL1        0.0731
     41 C          10.4037    1.7500    0.0000 C.ar    1  UNL1        0.2138
     42 C           6.8716    2.7708    0.0000 C.ar    1  UNL1        0.1310
     43 C          10.4037    2.7500    0.0000 C.ar    1  UNL1        0.1810
     44 C           9.5376    1.2500    0.0000 C.ar    1  UNL1        0.2382
     45 C           8.6716    1.7500    0.0000 C.ar    1  UNL1        0.1092
     46 C           8.6716    2.7500    0.0000 C.ar    1  UNL1        0.1465
     47 C           7.7777    3.2847    0.0000 C.ar    1  UNL1        0.0235
     48 C           6.8716    1.7292    0.0000 C.ar    1  UNL1        0.0226
     49 C           7.7777    1.2153    0.0000 C.ar    1  UNL1        0.1348
     50 C          11.2697    3.2500    0.0000 C.ar    1  UNL1        0.0247
     51 C          11.2697    4.2500    0.0000 C.ar    1  UNL1       -0.0057
     52 C          12.1357    2.7500    0.0000 C.ar    1  UNL1       -0.0473
     53 C          12.1357    4.7500    0.0000 C.ar    1  UNL1        0.1589
     54 C          13.0017    3.2500    0.0000 C.ar    1  UNL1       -0.0159
     55 C          13.0017    4.2500    0.0000 C.ar    1  UNL1        0.1583
     56 H           9.8667   -0.9400    0.0000 H       1  UNL1        0.0647
     57 H          10.7328   -2.0600    0.0000 H       1  UNL1        0.0647
     58 H          12.1357   -1.8700    0.0000 H       1  UNL1        0.0648
     59 H          12.6727   -0.5600    0.0000 H       1  UNL1        0.0683
     60 H           8.6716   -4.8700    0.0000 H       1  UNL1        0.0671
     61 H           8.6716   -2.6300    0.0000 H       1  UNL1        0.0937
     62 H           7.2687   -5.0600    0.0000 H       1  UNL1        0.0648
     63 H           6.9396   -4.8700    0.0000 H       1  UNL1        0.0647
     64 H           6.9396   -2.6300    0.0000 H       1  UNL1        0.0647
     65 H          10.7328    0.5600    0.0000 H       1  UNL1        0.1084
     66 H           9.3256   -1.1674    0.0000 H       1  UNL1        0.0587
     67 H           8.9271   -1.8577    0.0000 H       1  UNL1        0.0587
     68 H           3.7296    0.9729    0.0000 H       1  UNL1        0.0648
     69 H           2.8680    2.0962    0.0000 H       1  UNL1        0.0647
     70 H           5.6738    2.0854    0.0000 H       1  UNL1        0.0683
     71 H           3.4099    3.4042    0.0000 H       1  UNL1        0.0647
     72 H           5.4630   -2.6423    0.0000 H       1  UNL1        0.0584
     73 H           5.8615   -3.3326    0.0000 H       1  UNL1        0.0584
     74 H           5.1420    3.3975    0.0000 H       1  UNL1        0.1084
     75 H          11.8066   -3.0600    0.0000 H       1  UNL1        0.2100
     76 H          13.5387   -1.4400    0.0000 H       1  UNL1        0.2100
     77 H          13.0017    0.8700    0.0000 H       1  UNL1        0.2102
     78 H          10.0746   -4.4400    0.0000 H       1  UNL1        0.2101
     79 H           7.2687   -6.0600    0.0000 H       1  UNL1        0.2100
     80 H           5.5366   -4.4400    0.0000 H       1  UNL1        0.2100
     81 H           1.9333    3.3975    0.0000 H       1  UNL1        0.0584
     82 H           2.3292    2.7057    0.0000 H       1  UNL1        0.0584
     83 H           3.7258   -0.0271    0.0000 H       1  UNL1        0.2100
     84 H           2.0000    1.5996    0.0000 H       1  UNL1        0.2100
     85 H           5.9974    0.6542    0.0000 H       1  UNL1        0.2102
     86 H           5.5366   -1.4400    0.0000 H       1  UNL1        0.2095
     87 H           7.7848    3.9046    0.0000 H       1  UNL1        0.0691
     88 H           6.3359    1.4171    0.0000 H       1  UNL1        0.0691
     89 H           2.0116    4.5996    0.0000 H       1  UNL1        0.2095
     90 H          10.7328    4.5600    0.0000 H       1  UNL1        0.0662
     91 H          12.1357    2.1300    0.0000 H       1  UNL1        0.0626
     92 H           7.2559   -0.1008    0.0000 H       1  UNL1        0.2922
     93 H          13.5387    2.9400    0.0000 H       1  UNL1        0.0655
     94 H          11.5988    6.0600    0.0000 H       1  UNL1        0.2923
     95 H          14.4047    4.4400    0.0000 H       1  UNL1        0.2923
@<TRIPOS>BOND
     1     1    23    1
     2     1    32    1
     3     2    28    1
     4     2    31    1
     5    28     3    1
     6     3    33    1
     7    24     4    1
     8     4    75    1
     9    32     5    1
    10     5    41    1
    11     6    25    1
    12     6    76    1
    13     7    37    1
    14     7    39    1
    15     8    26    1
    16     8    77    1
    17     9    27    1
    18     9    78    1
    19    29    10    1
    20    10    79    1
    21    30    11    1
    22    11    80    1
    23    39    12    1
    24    12    42    1
    25    34    13    1
    26    13    83    1
    27    35    14    1
    28    14    84    1
    29    15    36    1
    30    15    85    1
    31    16    38    1
    32    16    86    1
    33    17    40    1
    34    17    89    1
    35    18    43   ar
    36    18    46   ar
    37    19    44    2
    38    20    49    1
    39    20    92    1
    40    21    53    1
    41    21    94    1
    42    22    55    1
    43    22    95    1
    44    23    24    1
    45    23    33    1
    46    23    56    1
    47    24    25    1
    48    24    57    1
    49    25    26    1
    50    25    58    1
    51    26    32    1
    52    26    59    1
    53    27    28    1
    54    27    29    1
    55    27    60    1
    56    28    61    1
    57    29    30    1
    58    29    62    1
    59    30    31    1
    60    30    63    1
    61    31    38    1
    62    31    64    1
    63    32    65    1
    64    33    66    1
    65    33    67    1
    66    34    35    1
    67    34    36    1
    68    34    68    1
    69    35    37    1
    70    35    69    1
    71    36    39    1
    72    36    70    1
    73    37    40    1
    74    37    71    1
    75    38    72    1
    76    38    73    1
    77    39    74    1
    78    40    81    1
    79    40    82    1
    80    41    43   ar
    81    41    44   ar
    82    42    47   ar
    83    42    48   ar
    84    43    50    1
    85    44    45   ar
    86    45    46   ar
    87    45    49   ar
    88    46    47   ar
    89    47    87    1
    90    48    49   ar
    91    48    88    1
    92    50    51   ar
    93    50    52   ar
    94    51    53   ar
    95    51    90    1
    96    52    54   ar
    97    52    91    1
    98    53    55   ar
    99    54    55   ar
   100    54    93    1
