@<TRIPOS>MOLECULE
IMPHY000558
 47 49 0 0 0
SMALL
GASTEIGER

@<TRIPOS>ATOM
      1 O           7.8066    3.3923    0.0000 O.3     1  UNL1       -0.3944
      2 O           2.5381   -2.7044    0.0000 O.3     1  UNL1       -0.4914
      3 O           2.5381   -0.6561    0.0000 O.3     1  UNL1       -0.5033
      4 N           6.9343   -1.1802    0.0000 N.3     1  UNL1       -0.2951
      5 C           6.0682   -0.6803    0.0000 C.3     1  UNL1        0.0363
      6 C           6.9502    0.8890    0.0000 C.3     1  UNL1       -0.0298
      7 C           6.0522    0.3613    0.0000 C.3     1  UNL1       -0.0297
      8 C           7.8523    0.3682    0.0000 C.3     1  UNL1       -0.0367
      9 C           7.8443   -0.6734    0.0000 C.3     1  UNL1       -0.0003
     10 C           6.9464    1.8890    0.0000 C.3     1  UNL1        0.0029
     11 C           6.9343   -2.1802    0.0000 C.3     1  UNL1        0.0035
     12 C           5.2022   -1.1802    0.0000 C.ar    1  UNL1       -0.0234
     13 C           6.0682   -2.6802    0.0000 C.3     1  UNL1       -0.0144
     14 C           5.2022   -2.1802    0.0000 C.ar    1  UNL1       -0.0378
     15 C           7.8105    2.3923    0.0000 C.3     1  UNL1        0.0507
     16 C           4.3083   -0.6456    0.0000 C.ar    1  UNL1       -0.0116
     17 C           6.0784    2.3857    0.0000 C.2     1  UNL1       -0.0856
     18 C           4.3083   -2.7149    0.0000 C.ar    1  UNL1       -0.0128
     19 C           3.4022   -1.1594    0.0000 C.ar    1  UNL1        0.1588
     20 C           3.4022   -2.2011    0.0000 C.ar    1  UNL1        0.1615
     21 C           6.0746    3.3856    0.0000 C.2     1  UNL1       -0.1023
     22 C           2.5420   -3.7044    0.0000 C.3     1  UNL1        0.0790
     23 H           6.8011   -0.2496    0.0000 H       1  UNL1        0.0512
     24 H           6.2117    1.3098    0.0000 H       1  UNL1        0.0308
     25 H           5.8342    0.9417    0.0000 H       1  UNL1        0.0286
     26 H           5.4431    0.2458    0.0000 H       1  UNL1        0.0286
     27 H           8.4623    0.2574    0.0000 H       1  UNL1        0.0280
     28 H           8.0659    0.9503    0.0000 H       1  UNL1        0.0280
     29 H           8.0488   -1.2587    0.0000 H       1  UNL1        0.0427
     30 H           8.4559   -0.5720    0.0000 H       1  UNL1        0.0427
     31 H           6.9440    2.5090    0.0000 H       1  UNL1        0.0368
     32 H           7.1463   -2.7629    0.0000 H       1  UNL1        0.0430
     33 H           7.5449   -2.0726    0.0000 H       1  UNL1        0.0430
     34 H           5.6697   -3.1552    0.0000 H       1  UNL1        0.0326
     35 H           6.4668   -3.1552    0.0000 H       1  UNL1        0.0326
     36 H           8.0248    1.8106    0.0000 H       1  UNL1        0.0563
     37 H           8.4206    2.5024    0.0000 H       1  UNL1        0.0563
     38 H           4.3154   -0.0256    0.0000 H       1  UNL1        0.0658
     39 H           5.5427    2.0736    0.0000 H       1  UNL1        0.0570
     40 H           4.3154   -3.3349    0.0000 H       1  UNL1        0.0658
     41 H           8.3424    3.7044    0.0000 H       1  UNL1        0.2094
     42 H           6.6103    3.6977    0.0000 H       1  UNL1        0.0532
     43 H           5.5364    3.6936    0.0000 H       1  UNL1        0.0532
     44 H           2.0000   -0.9640    0.0000 H       1  UNL1        0.2923
     45 H           1.9220   -3.7068    0.0000 H       1  UNL1        0.0660
     46 H           2.5444   -4.3244    0.0000 H       1  UNL1        0.0660
     47 H           3.1620   -3.7020    0.0000 H       1  UNL1        0.0660
@<TRIPOS>BOND
     1     1    15    1
     2     1    41    1
     3     2    20    1
     4     2    22    1
     5     3    19    1
     6     3    44    1
     7     4     5    1
     8     4     9    1
     9     4    11    1
    10     5     7    1
    11     5    12    1
    12     5    23    1
    13     6     7    1
    14     6     8    1
    15     6    10    1
    16     6    24    1
    17     7    25    1
    18     7    26    1
    19     8     9    1
    20     8    27    1
    21     8    28    1
    22     9    29    1
    23     9    30    1
    24    10    15    1
    25    10    17    1
    26    10    31    1
    27    11    13    1
    28    11    32    1
    29    11    33    1
    30    12    14   ar
    31    12    16   ar
    32    13    14    1
    33    13    34    1
    34    13    35    1
    35    14    18   ar
    36    15    36    1
    37    15    37    1
    38    16    19   ar
    39    16    38    1
    40    17    21    2
    41    17    39    1
    42    18    20   ar
    43    18    40    1
    44    19    20   ar
    45    21    42    1
    46    21    43    1
    47    22    45    1
    48    22    46    1
    49    22    47    1
