@<TRIPOS>MOLECULE
IMPHY009625
 27 28 0 0 0
SMALL
GASTEIGER

@<TRIPOS>ATOM
      1 O           6.5736   -0.3804    0.0000 O.3     1  UNL1       -0.3645
      2 O           9.0768   -1.3283    0.0000 O.2     1  UNL1       -0.4548
      3 O           3.9013   -0.2282    0.0000 O.2     1  UNL1       -0.4548
      4 O          11.5800   -0.3804    0.0000 O.2     1  UNL1       -0.2924
      5 O           2.0000    1.6559    0.0000 O.2     1  UNL1       -0.2924
      6 C           5.6226   -0.6894    0.0000 C.3     1  UNL1        0.1059
      7 C           7.3168   -1.0495    0.0000 C.3     1  UNL1        0.1059
      8 C           4.8794   -0.0202    0.0000 C.ar    1  UNL1        0.1314
      9 C           8.2678   -0.7405    0.0000 C.ar    1  UNL1        0.1314
     10 C           8.5768    0.2106    0.0000 C.ar    1  UNL1       -0.0177
     11 C           4.9839    0.9743    0.0000 C.ar    1  UNL1       -0.0177
     12 C           3.4013    0.6379    0.0000 C.ar    1  UNL1        0.1672
     13 C           9.8858   -0.7405    0.0000 C.ar    1  UNL1        0.1672
     14 C           9.5768    0.2106    0.0000 C.ar    1  UNL1       -0.0129
     15 C           4.0704    1.3810    0.0000 C.ar    1  UNL1       -0.0129
     16 C           2.4067    0.7424    0.0000 C.2     1  UNL1        0.1851
     17 C          10.8369   -1.0495    0.0000 C.2     1  UNL1        0.1851
     18 H           5.1340   -1.0711    0.0000 H       1  UNL1        0.0641
     19 H           5.9136   -1.2368    0.0000 H       1  UNL1        0.0641
     20 H           6.8282   -1.4312    0.0000 H       1  UNL1        0.0641
     21 H           7.6078   -1.5969    0.0000 H       1  UNL1        0.0641
     22 H           5.5209    1.2843    0.0000 H       1  UNL1        0.0653
     23 H           8.2124    0.7122    0.0000 H       1  UNL1        0.0653
     24 H           3.9415    1.9875    0.0000 H       1  UNL1        0.0656
     25 H           9.9412    0.7122    0.0000 H       1  UNL1        0.0656
     26 H           2.0423    0.2408    0.0000 H       1  UNL1        0.1114
     27 H          10.9658   -1.6559    0.0000 H       1  UNL1        0.1114
@<TRIPOS>BOND
     1     1     6    1
     2     1     7    1
     3     2     9   ar
     4     2    13   ar
     5     3     8   ar
     6     3    12   ar
     7     4    17    2
     8     5    16    2
     9     6     8    1
    10     6    18    1
    11     6    19    1
    12     7     9    1
    13     7    20    1
    14     7    21    1
    15     8    11   ar
    16     9    10   ar
    17    10    14   ar
    18    10    23    1
    19    11    15   ar
    20    11    22    1
    21    12    15   ar
    22    12    16    1
    23    13    14   ar
    24    13    17    1
    25    14    25    1
    26    15    24    1
    27    16    26    1
    28    17    27    1
