@<TRIPOS>MOLECULE
IMPHY001198
 96 103 0 0 0
SMALL
GASTEIGER

@<TRIPOS>ATOM
      1 O           6.0149    1.5491    0.0000 O.3     1  UNL1       -0.3151
      2 O           6.4081    0.5352    0.0000 O.3     1  UNL1       -0.3160
      3 O           7.6384    0.7673    0.0000 O.3     1  UNL1       -0.3087
      4 O           3.6236   -0.0474    0.0000 O.3     1  UNL1       -0.4476
      5 O           3.4071    1.5908    0.0000 O.3     1  UNL1       -0.4532
      6 O           4.4017   -1.8140    0.0000 O.3     1  UNL1       -0.4538
      7 O          10.0849   -1.9677    0.0000 O.3     1  UNL1       -0.4525
      8 O           3.7077   -3.6944    0.0000 O.3     1  UNL1       -0.4679
      9 O           5.2839   -2.9765    0.0000 O.2     1  UNL1       -0.2509
     10 O           2.8188    1.7088    0.0000 O.2     1  UNL1       -0.2511
     11 O           5.0280    2.2013    0.0000 O.2     1  UNL1       -0.2453
     12 O           2.7894   -1.1812    0.0000 O.2     1  UNL1       -0.2512
     13 O          11.0535   -0.4409    0.0000 O.2     1  UNL1       -0.2456
     14 O           8.4094   -4.9302    0.0000 O.2     1  UNL1       -0.4706
     15 C           5.6139   -0.2077    0.0000 C.3     1  UNL1        0.0375
     16 C           5.3914    0.7673    0.0000 C.3     1  UNL1        0.1307
     17 C           4.6095    0.1198    0.0000 C.3     1  UNL1        0.2192
     18 C           6.5149   -0.6416    0.0000 C.3     1  UNL1        0.1199
     19 C           3.2799   -0.2275    0.0000 C.3     1  UNL1        0.0158
     20 C           4.4549   -1.1564    0.0000 C.3     1  UNL1       -0.0111
     21 C           7.4159   -0.2077    0.0000 C.3     1  UNL1        0.1672
     22 C           3.9355    1.1192    0.0000 C.3     1  UNL1       -0.0097
     23 C           3.7596    0.6550    0.0000 C.3     1  UNL1        0.1550
     24 C           4.7670   -0.8831    0.0000 C.3     1  UNL1        0.1843
     25 C           7.0149    1.5491    0.0000 C.3     1  UNL1        0.2847
     26 C           6.4211   -1.6790    0.0000 C.3     1  UNL1       -0.0188
     27 C           5.8365   -1.1826    0.0000 C.3     1  UNL1       -0.0537
     28 C           8.2855   -0.7811    0.0000 C.2     1  UNL1       -0.0150
     29 C           2.3050   -0.4501    0.0000 C.3     1  UNL1       -0.0557
     30 C           3.8740   -1.9704    0.0000 C.3     1  UNL1        0.0490
     31 C           8.2156   -1.8204    0.0000 C.3     1  UNL1        0.0337
     32 C           7.2772   -2.2723    0.0000 C.3     1  UNL1       -0.0374
     33 C           7.9159    1.9830    0.0000 C.3     1  UNL1        0.0176
     34 C           9.1074   -2.4385    0.0000 C.3     1  UNL1        0.1403
     35 C           9.2518   -0.2879    0.0000 C.2     1  UNL1        0.0253
     36 C           8.1486   -2.8182    0.0000 C.3     1  UNL1       -0.0520
     37 C           4.2885   -2.8804    0.0000 C.2     1  UNL1        0.3071
     38 C           2.9859    0.7228    0.0000 C.2     1  UNL1        0.3048
     39 C           4.0413    2.3640    0.0000 C.2     1  UNL1        0.3350
     40 C           3.4128   -1.9630    0.0000 C.2     1  UNL1        0.3044
     41 C          10.1576   -0.8852    0.0000 C.2     1  UNL1        0.3326
     42 C           9.0288   -3.4354    0.0000 C.ar    1  UNL1        0.0313
     43 C           2.0000    0.5557    0.0000 C.3     1  UNL1        0.0333
     44 C           3.6888    3.2998    0.0000 C.2     1  UNL1        0.0293
     45 C           3.0475   -2.8939    0.0000 C.3     1  UNL1        0.0332
     46 C           9.7891   -4.0849    0.0000 C.ar    1  UNL1       -0.0172
     47 C           8.1761   -3.9578    0.0000 C.ar    1  UNL1        0.0984
     48 C           4.1222   -4.6045    0.0000 C.3     1  UNL1        0.0817
     49 C           2.7021    3.4624    0.0000 C.3     1  UNL1       -0.0333
     50 C           4.3230    4.0729    0.0000 C.2     1  UNL1       -0.0774
     51 C           9.4063   -5.0088    0.0000 C.ar    1  UNL1        0.0921
     52 C           3.9705    5.0088    0.0000 C.3     1  UNL1       -0.0461
     53 H           4.9719   -1.4987    0.0000 H       1  UNL1        0.0319
     54 H           4.1242    1.7098    0.0000 H       1  UNL1        0.0301
     55 H           3.3600    1.3498    0.0000 H       1  UNL1        0.0301
     56 H           4.3725    0.7481    0.0000 H       1  UNL1        0.0783
     57 H           4.2380   -0.5597    0.0000 H       1  UNL1        0.0811
     58 H           5.8223   -1.5183    0.0000 H       1  UNL1        0.0294
     59 H           6.1603   -2.2414    0.0000 H       1  UNL1        0.0294
     60 H           5.2320   -1.3206    0.0000 H       1  UNL1        0.0237
     61 H           5.9744   -1.7871    0.0000 H       1  UNL1        0.0237
     62 H           6.4409   -1.0446    0.0000 H       1  UNL1        0.0237
     63 H           2.1670    0.1544    0.0000 H       1  UNL1        0.0236
     64 H           1.7006   -0.5880    0.0000 H       1  UNL1        0.0236
     65 H           2.4430   -1.0545    0.0000 H       1  UNL1        0.0236
     66 H           3.4396   -1.5281    0.0000 H       1  UNL1        0.0381
     67 H           3.3630   -2.3215    0.0000 H       1  UNL1        0.0381
     68 H           6.8420   -2.7140    0.0000 H       1  UNL1        0.0276
     69 H           7.6378   -2.7767    0.0000 H       1  UNL1        0.0276
     70 H           8.1849    1.4244    0.0000 H       1  UNL1        0.0307
     71 H           8.4745    2.2520    0.0000 H       1  UNL1        0.0307
     72 H           7.6469    2.5416    0.0000 H       1  UNL1        0.0307
     73 H           9.6190   -2.7887    0.0000 H       1  UNL1        0.0795
     74 H           9.2863    0.3312    0.0000 H       1  UNL1        0.0689
     75 H           7.5300   -2.7766    0.0000 H       1  UNL1        0.0239
     76 H           8.1070   -3.4368    0.0000 H       1  UNL1        0.0239
     77 H           8.7672   -2.8597    0.0000 H       1  UNL1        0.0239
     78 H           1.8964    1.1670    0.0000 H       1  UNL1        0.0342
     79 H           1.3887    0.4521    0.0000 H       1  UNL1        0.0342
     80 H           2.1036   -0.0556    0.0000 H       1  UNL1        0.0342
     81 H           2.4704   -2.6674    0.0000 H       1  UNL1        0.0342
     82 H           2.8210   -3.4710    0.0000 H       1  UNL1        0.0342
     83 H           3.6246   -3.1204    0.0000 H       1  UNL1        0.0342
     84 H          10.3920   -3.9403    0.0000 H       1  UNL1        0.0653
     85 H           7.6033   -3.7205    0.0000 H       1  UNL1        0.1033
     86 H           3.5579   -4.8615    0.0000 H       1  UNL1        0.0661
     87 H           4.3792   -5.1687    0.0000 H       1  UNL1        0.0661
     88 H           4.6864   -4.3475    0.0000 H       1  UNL1        0.0661
     89 H           2.8029    4.0742    0.0000 H       1  UNL1        0.0280
     90 H           2.0903    3.5632    0.0000 H       1  UNL1        0.0280
     91 H           2.6012    2.8507    0.0000 H       1  UNL1        0.0280
     92 H           4.9347    3.9721    0.0000 H       1  UNL1        0.0574
     93 H           9.7302   -5.5374    0.0000 H       1  UNL1        0.1029
     94 H           4.5507    5.2273    0.0000 H       1  UNL1        0.0272
     95 H           3.7519    5.5890    0.0000 H       1  UNL1        0.0272
     96 H           3.3903    4.7902    0.0000 H       1  UNL1        0.0272
@<TRIPOS>BOND
     1     1    16    1
     2     1    25    1
     3     2    18    1
     4     2    25    1
     5     3    21    1
     6     3    25    1
     7     4    17    1
     8     4    38    1
     9    23     5    1
    10     5    39    1
    11    24     6    1
    12     6    40    1
    13     7    34    1
    14     7    41    1
    15     8    37    1
    16     8    48    1
    17     9    37    2
    18    10    38    2
    19    11    39    2
    20    12    40    2
    21    13    41    2
    22    14    47   ar
    23    14    51   ar
    24    15    16    1
    25    15    18    1
    26    15    20    1
    27    15    27    1
    28    16    17    1
    29    16    22    1
    30    17    23    1
    31    17    24    1
    32    18    21    1
    33    18    26    1
    34    19    20    1
    35    19    22    1
    36    19    23    1
    37    19    29    1
    38    20    30    1
    39    20    53    1
    40    21    24    1
    41    21    28    1
    42    22    54    1
    43    22    55    1
    44    23    56    1
    45    24    57    1
    46    25    33    1
    47    26    32    1
    48    26    58    1
    49    26    59    1
    50    27    60    1
    51    27    61    1
    52    27    62    1
    53    28    31    1
    54    28    35    2
    55    29    63    1
    56    29    64    1
    57    29    65    1
    58    30    37    1
    59    30    66    1
    60    30    67    1
    61    31    32    1
    62    31    34    1
    63    31    36    1
    64    32    68    1
    65    32    69    1
    66    33    70    1
    67    33    71    1
    68    33    72    1
    69    34    42    1
    70    34    73    1
    71    35    41    1
    72    35    74    1
    73    36    75    1
    74    36    76    1
    75    36    77    1
    76    38    43    1
    77    39    44    1
    78    40    45    1
    79    42    46   ar
    80    42    47   ar
    81    43    78    1
    82    43    79    1
    83    43    80    1
    84    44    49    1
    85    44    50    2
    86    45    81    1
    87    45    82    1
    88    45    83    1
    89    46    51   ar
    90    46    84    1
    91    47    85    1
    92    48    86    1
    93    48    87    1
    94    48    88    1
    95    49    89    1
    96    49    90    1
    97    49    91    1
    98    50    52    1
    99    50    92    1
   100    51    93    1
   101    52    94    1
   102    52    95    1
   103    52    96    1
