@<TRIPOS>MOLECULE
IMPHY003444
 44 46 0 0 0
SMALL
GASTEIGER

@<TRIPOS>ATOM
      1 O           8.1301   -0.9254    0.0000 O.3     1  UNL1       -0.4830
      2 O           6.3817    2.1092    0.0000 O.3     1  UNL1       -0.5057
      3 O           8.1301    2.0746    0.0000 O.2     1  UNL1       -0.2917
      4 O          12.4602   -2.4254    0.0000 O.3     1  UNL1       -0.5068
      5 C           8.9961   -0.4254    0.0000 C.3     1  UNL1        0.1322
      6 C           8.9961    0.5746    0.0000 C.3     1  UNL1        0.0520
      7 C           7.2641    0.5746    0.0000 C.ar    1  UNL1        0.1007
      8 C           7.2641   -0.4254    0.0000 C.ar    1  UNL1        0.1354
      9 C           8.1301    1.0746    0.0000 C.2     1  UNL1        0.1740
     10 C           9.8622   -0.9254    0.0000 C.ar    1  UNL1       -0.0067
     11 C           6.3701    1.1093    0.0000 C.ar    1  UNL1        0.1343
     12 C           5.4641    0.5954    0.0000 C.ar    1  UNL1       -0.0013
     13 C           6.3701   -0.9601    0.0000 C.ar    1  UNL1       -0.0187
     14 C           5.4641   -0.4462    0.0000 C.ar    1  UNL1       -0.0513
     15 C           4.6000    1.0988    0.0000 C.3     1  UNL1       -0.0058
     16 C           9.8622   -1.9254    0.0000 C.ar    1  UNL1       -0.0516
     17 C          10.7282   -0.4254    0.0000 C.ar    1  UNL1       -0.0516
     18 C           3.7320    0.6021    0.0000 C.2     1  UNL1       -0.0809
     19 C          10.7282   -2.4254    0.0000 C.ar    1  UNL1       -0.0198
     20 C          11.5942   -0.9254    0.0000 C.ar    1  UNL1       -0.0198
     21 C          11.5942   -1.9254    0.0000 C.ar    1  UNL1        0.1169
     22 C           2.8680    1.1054    0.0000 C.2     1  UNL1       -0.0793
     23 C           2.0000    0.6088    0.0000 C.3     1  UNL1       -0.0440
     24 C           2.8718    2.1054    0.0000 C.3     1  UNL1       -0.0440
     25 H           9.5331   -0.1154    0.0000 H       1  UNL1        0.0789
     26 H           9.6067    0.4669    0.0000 H       1  UNL1        0.0385
     27 H           9.2082    1.1572    0.0000 H       1  UNL1        0.0385
     28 H           6.3773   -1.5800    0.0000 H       1  UNL1        0.0654
     29 H           4.9283   -0.7583    0.0000 H       1  UNL1        0.0623
     30 H           5.0003    1.5722    0.0000 H       1  UNL1        0.0357
     31 H           4.2033    1.5752    0.0000 H       1  UNL1        0.0357
     32 H           9.3252   -2.2354    0.0000 H       1  UNL1        0.0623
     33 H          10.7282    0.1946    0.0000 H       1  UNL1        0.0623
     34 H           3.7296   -0.0179    0.0000 H       1  UNL1        0.0575
     35 H          10.7282   -3.0454    0.0000 H       1  UNL1        0.0654
     36 H          12.1311   -0.6154    0.0000 H       1  UNL1        0.0654
     37 H           5.8484    2.4254    0.0000 H       1  UNL1        0.2922
     38 H           1.6921    1.1469    0.0000 H       1  UNL1        0.0274
     39 H           3.4918    2.1030    0.0000 H       1  UNL1        0.0274
     40 H           2.8742    2.7254    0.0000 H       1  UNL1        0.0274
     41 H           2.2518    2.1078    0.0000 H       1  UNL1        0.0274
     42 H           1.4619    0.3008    0.0000 H       1  UNL1        0.0274
     43 H           2.3079    0.0706    0.0000 H       1  UNL1        0.0274
     44 H          12.9972   -2.1154    0.0000 H       1  UNL1        0.2921
@<TRIPOS>BOND
     1     1     5    1
     2     1     8    1
     3     2    11    1
     4     2    37    1
     5     3     9    2
     6     4    21    1
     7     4    44    1
     8     5     6    1
     9     5    10    1
    10     5    25    1
    11     6     9    1
    12     6    26    1
    13     6    27    1
    14     7     8   ar
    15     7     9    1
    16     7    11   ar
    17     8    13   ar
    18    10    16   ar
    19    10    17   ar
    20    11    12   ar
    21    12    14   ar
    22    12    15    1
    23    13    14   ar
    24    13    28    1
    25    14    29    1
    26    15    18    1
    27    15    30    1
    28    15    31    1
    29    16    19   ar
    30    16    32    1
    31    17    20   ar
    32    17    33    1
    33    18    22    2
    34    18    34    1
    35    19    21   ar
    36    19    35    1
    37    20    21   ar
    38    20    36    1
    39    22    23    1
    40    22    24    1
    41    23    38    1
    42    23    42    1
    43    23    43    1
    44    24    39    1
    45    24    40    1
    46    24    41    1
