@<TRIPOS>MOLECULE
IMPHY007570
 26 29 0 0 0
SMALL
GASTEIGER

@<TRIPOS>ATOM
      1 O           2.0000    0.3475    0.0000 O.2     1  UNL1       -0.2673
      2 O           5.4292   -2.9104    0.0000 O.co2   1  UNL1       -0.6193
      3 N           3.7602    0.1593    0.0000 N.ar    1  UNL1       -0.2703
      4 N           5.3799   -1.9116    0.0000 N.ar    1  UNL1       -0.1691
      5 C           4.5692   -0.4285    0.0000 C.ar    1  UNL1        0.1305
      6 C           5.3782    0.1593    0.0000 C.ar    1  UNL1        0.0201
      7 C           4.0692    1.1104    0.0000 C.ar    1  UNL1        0.0580
      8 C           5.0692    1.1104    0.0000 C.ar    1  UNL1        0.0085
      9 C           4.4763   -1.4659    0.0000 C.ar    1  UNL1        0.2439
     10 C           2.8022   -0.2496    0.0000 C.ar    1  UNL1        0.2566
     11 C           6.2345   -0.3716    0.0000 C.ar    1  UNL1        0.0132
     12 C           3.5345    2.0043    0.0000 C.ar    1  UNL1       -0.0371
     13 C           5.6038    2.0043    0.0000 C.ar    1  UNL1       -0.0520
     14 C           3.5280   -1.8969    0.0000 C.ar    1  UNL1        0.0183
     15 C           2.6853   -1.2847    0.0000 C.ar    1  UNL1        0.0096
     16 C           6.2353   -1.3792    0.0000 C.ar    1  UNL1        0.1841
     17 C           4.0484    2.9104    0.0000 C.ar    1  UNL1       -0.0598
     18 C           5.0900    2.9104    0.0000 C.ar    1  UNL1       -0.0611
     19 H           6.7761   -0.0699    0.0000 H       1  UNL1        0.0684
     20 H           2.9146    1.9972    0.0000 H       1  UNL1        0.0638
     21 H           6.2238    1.9972    0.0000 H       1  UNL1        0.0624
     22 H           3.4656   -2.5138    0.0000 H       1  UNL1        0.0686
     23 H           2.1179   -1.5347    0.0000 H       1  UNL1        0.0674
     24 H           6.7774   -1.6800    0.0000 H       1  UNL1        0.1390
     25 H           3.7363    3.4461    0.0000 H       1  UNL1        0.0618
     26 H           5.4021    3.4461    0.0000 H       1  UNL1        0.0618
@<TRIPOS>UNITY_ATOM_ATTR
2 1
charge -1
4 1
charge 1
@<TRIPOS>BOND
     1     1    10    2
     2     2     4    1
     3     3     5   ar
     4     3     7   ar
     5     3    10   ar
     6     4     9   ar
     7     4    16   ar
     8     5     6   ar
     9     5     9   ar
    10     6     8   ar
    11     6    11   ar
    12     7     8   ar
    13     7    12   ar
    14     8    13   ar
    15     9    14   ar
    16    10    15   ar
    17    11    16   ar
    18    11    19    1
    19    12    17   ar
    20    12    20    1
    21    13    18   ar
    22    13    21    1
    23    14    15   ar
    24    14    22    1
    25    15    23    1
    26    16    24    1
    27    17    18   ar
    28    17    25    1
    29    18    26    1
