@<TRIPOS>MOLECULE
IMPHY014381
 23 22 0 0 0
SMALL
GASTEIGER

@<TRIPOS>ATOM
      1 O           6.3301    0.1160    0.0000 O.3     1  UNL1       -0.4782
      2 O           5.4641    1.6160    0.0000 O.2     1  UNL1       -0.2470
      3 O           2.8660    1.1160    0.0000 O.2     1  UNL1       -0.2761
      4 N           3.7320   -0.3840    0.0000 N.am    1  UNL1       -0.2886
      5 N           4.0981    0.9821    0.0000 N.3     1  UNL1       -0.3011
      6 C           4.5981    0.1160    0.0000 C.3     1  UNL1        0.1820
      7 C           5.0981   -0.7500    0.0000 C.3     1  UNL1       -0.0104
      8 C           4.5981   -1.6160    0.0000 C.3     1  UNL1       -0.0616
      9 C           5.4641    0.6160    0.0000 C.2     1  UNL1        0.3433
     10 C           2.8660    0.1160    0.0000 C.2     1  UNL1        0.2116
     11 C           2.0000   -0.3840    0.0000 C.3     1  UNL1        0.0122
     12 H           5.5730   -1.1485    0.0000 H       1  UNL1        0.0302
     13 H           5.5730   -0.3515    0.0000 H       1  UNL1        0.0302
     14 H           3.7320   -1.0040    0.0000 H       1  UNL1        0.1510
     15 H           4.0611   -1.3060    0.0000 H       1  UNL1        0.0231
     16 H           4.2881   -2.1530    0.0000 H       1  UNL1        0.0231
     17 H           5.1350   -1.9260    0.0000 H       1  UNL1        0.0231
     18 H           4.4081    1.5190    0.0000 H       1  UNL1        0.1207
     19 H           3.4781    0.9821    0.0000 H       1  UNL1        0.1207
     20 H           1.6900    0.1530    0.0000 H       1  UNL1        0.0322
     21 H           1.4631   -0.6940    0.0000 H       1  UNL1        0.0322
     22 H           2.3100   -0.9209    0.0000 H       1  UNL1        0.0322
     23 H           6.8671    0.4260    0.0000 H       1  UNL1        0.2952
@<TRIPOS>BOND
     1     1     9    1
     2     1    23    1
     3     2     9    2
     4     3    10    2
     5     4     6    1
     6     4    10   am
     7     4    14    1
     8     5     6    1
     9     5    18    1
    10     5    19    1
    11     6     7    1
    12     6     9    1
    13     7     8    1
    14     7    12    1
    15     7    13    1
    16     8    15    1
    17     8    16    1
    18     8    17    1
    19    10    11    1
    20    11    20    1
    21    11    21    1
    22    11    22    1
