@<TRIPOS>MOLECULE
IMPHY007629
 30 31 0 0 0
SMALL
GASTEIGER

@<TRIPOS>ATOM
      1 O           5.1350    0.2500    0.0000 O.3     1  UNL1       -0.4562
      2 O           2.5369   -1.2500    0.0000 O.3     1  UNL1       -0.5058
      3 O           6.0010   -1.2500    0.0000 O.3     1  UNL1       -0.5058
      4 O           3.4030    0.2500    0.0000 O.2     1  UNL1       -0.2447
      5 C           6.0010    1.7500    0.0000 C.ar    1  UNL1       -0.0103
      6 C           5.1350    1.2500    0.0000 C.3     1  UNL1        0.1179
      7 C           4.2690   -1.2500    0.0000 C.ar    1  UNL1        0.1414
      8 C           3.4030   -1.7500    0.0000 C.ar    1  UNL1        0.1344
      9 C           5.1350   -1.7500    0.0000 C.ar    1  UNL1        0.1344
     10 C           4.2690   -0.2500    0.0000 C.2     1  UNL1        0.3466
     11 C           6.8671    1.2500    0.0000 C.ar    1  UNL1       -0.0554
     12 C           6.0010    2.7500    0.0000 C.ar    1  UNL1       -0.0554
     13 C           3.4030   -2.7500    0.0000 C.ar    1  UNL1       -0.0191
     14 C           5.1350   -2.7500    0.0000 C.ar    1  UNL1       -0.0191
     15 C           4.2690   -3.2500    0.0000 C.ar    1  UNL1       -0.0548
     16 C           7.7331    1.7500    0.0000 C.ar    1  UNL1       -0.0614
     17 C           6.8671    3.2500    0.0000 C.ar    1  UNL1       -0.0614
     18 C           7.7331    2.7500    0.0000 C.ar    1  UNL1       -0.0617
     19 H           4.9230    1.8326    0.0000 H       1  UNL1        0.0749
     20 H           4.5244    1.1423    0.0000 H       1  UNL1        0.0749
     21 H           6.8671    0.6300    0.0000 H       1  UNL1        0.0621
     22 H           5.4641    3.0600    0.0000 H       1  UNL1        0.0621
     23 H           2.8660   -3.0600    0.0000 H       1  UNL1        0.0654
     24 H           5.6720   -3.0600    0.0000 H       1  UNL1        0.0654
     25 H           4.2690   -3.8700    0.0000 H       1  UNL1        0.0620
     26 H           8.2700    1.4400    0.0000 H       1  UNL1        0.0618
     27 H           6.8671    3.8700    0.0000 H       1  UNL1        0.0618
     28 H           8.2700    3.0600    0.0000 H       1  UNL1        0.0618
     29 H           2.0000   -1.5600    0.0000 H       1  UNL1        0.2922
     30 H           6.5380   -1.5600    0.0000 H       1  UNL1        0.2922
@<TRIPOS>BOND
     1     1     6    1
     2     1    10    1
     3     2     8    1
     4     2    29    1
     5     3     9    1
     6     3    30    1
     7     4    10    2
     8     5     6    1
     9     5    11   ar
    10     5    12   ar
    11     6    19    1
    12     6    20    1
    13     7     8   ar
    14     7     9   ar
    15     7    10    1
    16     8    13   ar
    17     9    14   ar
    18    11    16   ar
    19    11    21    1
    20    12    17   ar
    21    12    22    1
    22    13    15   ar
    23    13    23    1
    24    14    15   ar
    25    14    24    1
    26    15    25    1
    27    16    18   ar
    28    16    26    1
    29    17    18   ar
    30    17    27    1
    31    18    28    1
