@<TRIPOS>MOLECULE
IMPHY004354
 57 59 0 0 0
SMALL
GASTEIGER

@<TRIPOS>ATOM
      1 O           8.1301   -1.1900    0.0000 O.2     1  UNL1       -0.4539
      2 O           6.3817    1.8446    0.0000 O.3     1  UNL1       -0.5055
      3 O           8.1301    1.8100    0.0000 O.2     1  UNL1       -0.2866
      4 O           4.6000   -1.2142    0.0000 O.3     1  UNL1       -0.5062
      5 O           8.9961   -2.6900    0.0000 O.3     1  UNL1       -0.5059
      6 O          12.4602   -2.6900    0.0000 O.3     1  UNL1       -0.5066
      7 C           7.2641    0.3100    0.0000 C.ar    1  UNL1        0.1060
      8 C           8.9961    0.3100    0.0000 C.ar    1  UNL1        0.0467
      9 C           7.2641   -0.6900    0.0000 C.ar    1  UNL1        0.1463
     10 C           8.9961   -0.6900    0.0000 C.ar    1  UNL1        0.1462
     11 C           5.4641    0.3308    0.0000 C.ar    1  UNL1        0.0400
     12 C           8.1301    0.8100    0.0000 C.ar    1  UNL1        0.2001
     13 C           6.3701    0.8447    0.0000 C.ar    1  UNL1        0.1381
     14 C           9.8622    0.8100    0.0000 C.3     1  UNL1       -0.0021
     15 C           5.4641   -0.7108    0.0000 C.ar    1  UNL1        0.1273
     16 C           4.6000    0.8342    0.0000 C.3     1  UNL1       -0.0023
     17 C           6.3701   -1.2247    0.0000 C.ar    1  UNL1        0.0234
     18 C           9.8622   -1.1900    0.0000 C.ar    1  UNL1        0.0593
     19 C           9.8622    1.8100    0.0000 C.2     1  UNL1       -0.0807
     20 C           3.7320    0.3375    0.0000 C.2     1  UNL1       -0.0807
     21 C           9.8622   -2.1900    0.0000 C.ar    1  UNL1        0.1310
     22 C          10.7282   -0.6900    0.0000 C.ar    1  UNL1       -0.0441
     23 C          10.7282    2.3100    0.0000 C.2     1  UNL1       -0.0793
     24 C           2.8680    0.8408    0.0000 C.2     1  UNL1       -0.0793
     25 C          10.7282   -2.6900    0.0000 C.ar    1  UNL1        0.0220
     26 C          11.5942   -1.1900    0.0000 C.ar    1  UNL1       -0.0193
     27 C          11.5942   -2.1900    0.0000 C.ar    1  UNL1        0.1204
     28 C          10.7282    3.3100    0.0000 C.3     1  UNL1       -0.0440
     29 C          11.5942    1.8100    0.0000 C.3     1  UNL1       -0.0440
     30 C           2.0000    0.3442    0.0000 C.3     1  UNL1       -0.0440
     31 C           2.8718    1.8408    0.0000 C.3     1  UNL1       -0.0440
     32 H          10.0742    0.2274    0.0000 H       1  UNL1        0.0358
     33 H          10.4727    0.9177    0.0000 H       1  UNL1        0.0358
     34 H           5.0003    1.3076    0.0000 H       1  UNL1        0.0358
     35 H           4.2033    1.3106    0.0000 H       1  UNL1        0.0358
     36 H           6.3773   -1.8446    0.0000 H       1  UNL1        0.0691
     37 H           9.3252    2.1200    0.0000 H       1  UNL1        0.0575
     38 H           3.7296   -0.2825    0.0000 H       1  UNL1        0.0575
     39 H          10.7282   -0.0700    0.0000 H       1  UNL1        0.0627
     40 H           5.8484    2.1608    0.0000 H       1  UNL1        0.2922
     41 H          10.7282   -3.3100    0.0000 H       1  UNL1        0.0691
     42 H          12.1311   -0.8800    0.0000 H       1  UNL1        0.0654
     43 H           4.6024   -1.8342    0.0000 H       1  UNL1        0.2921
     44 H          11.3482    3.3100    0.0000 H       1  UNL1        0.0274
     45 H          10.7282    3.9300    0.0000 H       1  UNL1        0.0274
     46 H          10.1082    3.3100    0.0000 H       1  UNL1        0.0274
     47 H          11.2842    1.2731    0.0000 H       1  UNL1        0.0274
     48 H          12.1311    1.5000    0.0000 H       1  UNL1        0.0274
     49 H          11.9042    2.3469    0.0000 H       1  UNL1        0.0274
     50 H           3.4918    1.8384    0.0000 H       1  UNL1        0.0274
     51 H           2.8742    2.4608    0.0000 H       1  UNL1        0.0274
     52 H           2.2518    1.8432    0.0000 H       1  UNL1        0.0274
     53 H           1.6921    0.8823    0.0000 H       1  UNL1        0.0274
     54 H           1.4619    0.0362    0.0000 H       1  UNL1        0.0274
     55 H           2.3079   -0.1940    0.0000 H       1  UNL1        0.0274
     56 H           8.9961   -3.3100    0.0000 H       1  UNL1        0.2922
     57 H          12.9972   -2.3800    0.0000 H       1  UNL1        0.2921
@<TRIPOS>BOND
     1     1     9   ar
     2     1    10   ar
     3     2    13    1
     4     2    40    1
     5     3    12    2
     6     4    15    1
     7     4    43    1
     8     5    21    1
     9     5    56    1
    10     6    27    1
    11     6    57    1
    12     7     9   ar
    13     7    12   ar
    14     7    13   ar
    15     8    10   ar
    16     8    12   ar
    17     8    14    1
    18     9    17   ar
    19    10    18    1
    20    11    13   ar
    21    11    15   ar
    22    11    16    1
    23    14    19    1
    24    14    32    1
    25    14    33    1
    26    15    17   ar
    27    16    20    1
    28    16    34    1
    29    16    35    1
    30    17    36    1
    31    18    21   ar
    32    18    22   ar
    33    19    23    2
    34    19    37    1
    35    20    24    2
    36    20    38    1
    37    21    25   ar
    38    22    26   ar
    39    22    39    1
    40    23    28    1
    41    23    29    1
    42    24    30    1
    43    24    31    1
    44    25    27   ar
    45    25    41    1
    46    26    27   ar
    47    26    42    1
    48    28    44    1
    49    28    45    1
    50    28    46    1
    51    29    47    1
    52    29    48    1
    53    29    49    1
    54    30    53    1
    55    30    54    1
    56    30    55    1
    57    31    50    1
    58    31    51    1
    59    31    52    1
