@<TRIPOS>MOLECULE
IMPHY010011
 57 59 0 0 0
SMALL
GASTEIGER

@<TRIPOS>ATOM
      1 O           7.2622    0.0160    0.0000 O.3     1  UNL1       -0.4573
      2 O           6.3406   -3.5527    0.0000 O.3     1  UNL1       -0.4773
      3 O           4.6087   -3.5327    0.0000 O.2     1  UNL1       -0.2455
      4 O           2.0296    3.6726    0.0000 O.2     1  UNL1       -0.4708
      5 O           8.1340   -1.4806    0.0000 O.2     1  UNL1       -0.2511
      6 C           4.5981   -0.5081    0.0000 C.3     1  UNL1       -0.0221
      7 C           3.7320   -0.0081    0.0000 C.3     1  UNL1       -0.0254
      8 C           4.5981   -1.5081    0.0000 C.3     1  UNL1        0.0030
      9 C           2.8660   -0.5081    0.0000 C.3     1  UNL1       -0.0382
     10 C           3.7320   -2.0081    0.0000 C.3     1  UNL1       -0.0429
     11 C           2.8660   -1.5081    0.0000 C.3     1  UNL1       -0.0492
     12 C           5.4920    0.0266    0.0000 C.3     1  UNL1       -0.0078
     13 C           3.2320    0.8579    0.0000 C.3     1  UNL1       -0.0430
     14 C           5.4920   -2.0428    0.0000 C.2     1  UNL1        0.0421
     15 C           4.2320    0.8579    0.0000 C.3     1  UNL1       -0.0590
     16 C           4.5981   -2.5081    0.0000 C.3     1  UNL1       -0.0550
     17 C           6.3981   -0.4873    0.0000 C.3     1  UNL1        0.1223
     18 C           2.0000   -0.0081    0.0000 C.3     1  UNL1       -0.0619
     19 C           6.3981   -1.5289    0.0000 C.2     1  UNL1       -0.0335
     20 C           3.7320    1.7239    0.0000 C.3     1  UNL1       -0.0242
     21 C           5.4804   -3.0427    0.0000 C.2     1  UNL1        0.3331
     22 C           3.2320    2.5900    0.0000 C.ar    1  UNL1       -0.0097
     23 C           8.1301   -0.4806    0.0000 C.2     1  UNL1        0.3045
     24 C           3.6388    3.5035    0.0000 C.ar    1  UNL1       -0.0208
     25 C           2.2375    2.6945    0.0000 C.ar    1  UNL1        0.0948
     26 C           2.8956    4.1726    0.0000 C.ar    1  UNL1        0.0919
     27 C           8.9942    0.0227    0.0000 C.3     1  UNL1        0.0333
     28 H           4.5915    0.3419    0.0000 H       1  UNL1        0.0316
     29 H           2.8660    0.1119    0.0000 H       1  UNL1        0.0303
     30 H           3.3335   -2.4831    0.0000 H       1  UNL1        0.0274
     31 H           4.1306   -2.4831    0.0000 H       1  UNL1        0.0274
     32 H           2.2554   -1.4004    0.0000 H       1  UNL1        0.0268
     33 H           2.6540   -2.0907    0.0000 H       1  UNL1        0.0268
     34 H           5.8856    0.5056    0.0000 H       1  UNL1        0.0307
     35 H           5.0874    0.4963    0.0000 H       1  UNL1        0.0307
     36 H           2.7571    1.2564    0.0000 H       1  UNL1        0.0274
     37 H           2.7571    0.4594    0.0000 H       1  UNL1        0.0274
     38 H           4.7690    0.5479    0.0000 H       1  UNL1        0.0235
     39 H           4.5420    1.3948    0.0000 H       1  UNL1        0.0235
     40 H           3.6951    1.1679    0.0000 H       1  UNL1        0.0235
     41 H           3.9781   -2.5081    0.0000 H       1  UNL1        0.0238
     42 H           4.5981   -3.1281    0.0000 H       1  UNL1        0.0238
     43 H           5.2181   -2.5081    0.0000 H       1  UNL1        0.0238
     44 H           6.9356   -0.7963    0.0000 H       1  UNL1        0.0779
     45 H           2.3100    0.5288    0.0000 H       1  UNL1        0.0233
     46 H           1.4631    0.3019    0.0000 H       1  UNL1        0.0233
     47 H           1.6900   -0.5450    0.0000 H       1  UNL1        0.0233
     48 H           6.9338   -1.8410    0.0000 H       1  UNL1        0.0613
     49 H           4.2070    1.3254    0.0000 H       1  UNL1        0.0314
     50 H           4.2070    2.1225    0.0000 H       1  UNL1        0.0314
     51 H           6.3335   -4.1726    0.0000 H       1  UNL1        0.2954
     52 H           4.2452    3.6324    0.0000 H       1  UNL1        0.0652
     53 H           1.8227    2.2338    0.0000 H       1  UNL1        0.1032
     54 H           2.9604    4.7892    0.0000 H       1  UNL1        0.1029
     55 H           9.3063   -0.5130    0.0000 H       1  UNL1        0.0342
     56 H           9.5300    0.3348    0.0000 H       1  UNL1        0.0342
     57 H           8.6822    0.5585    0.0000 H       1  UNL1        0.0342
@<TRIPOS>BOND
     1    17     1    1
     2     1    23    1
     3     2    21    1
     4     2    51    1
     5     3    21    2
     6     4    25   ar
     7     4    26   ar
     8     5    23    2
     9     6     7    1
    10     6     8    1
    11     6    12    1
    12     6    28    1
    13     7     9    1
    14     7    13    1
    15     7    15    1
    16     8    10    1
    17     8    14    1
    18     8    16    1
    19     9    11    1
    20     9    18    1
    21     9    29    1
    22    10    11    1
    23    10    30    1
    24    10    31    1
    25    11    32    1
    26    11    33    1
    27    12    17    1
    28    12    34    1
    29    12    35    1
    30    13    20    1
    31    13    36    1
    32    13    37    1
    33    14    19    2
    34    14    21    1
    35    15    38    1
    36    15    39    1
    37    15    40    1
    38    16    41    1
    39    16    42    1
    40    16    43    1
    41    17    19    1
    42    17    44    1
    43    18    45    1
    44    18    46    1
    45    18    47    1
    46    19    48    1
    47    20    22    1
    48    20    49    1
    49    20    50    1
    50    22    24   ar
    51    22    25   ar
    52    23    27    1
    53    24    26   ar
    54    24    52    1
    55    25    53    1
    56    26    54    1
    57    27    55    1
    58    27    56    1
    59    27    57    1
