@<TRIPOS>MOLECULE
IMPHY002244
 84 89 0 0 0
SMALL
GASTEIGER

@<TRIPOS>ATOM
      1 O           2.9269   -0.9321    0.0000 O.3     1  UNL1       -0.3730
      2 O           4.9852   -2.2580    0.0000 O.3     1  UNL1       -0.3656
      3 O           5.6638    2.2453    0.0000 O.3     1  UNL1       -0.4576
      4 O           2.1240    2.2590    0.0000 O.3     1  UNL1       -0.3910
      5 O           8.2401    0.7139    0.0000 O.3     1  UNL1       -0.4679
      6 O           7.3740   -0.7861    0.0000 O.2     1  UNL1       -0.2509
      7 O           9.6799   -4.0181    0.0000 O.3     1  UNL1       -0.4281
      8 O           4.8152    3.7552    0.0000 O.2     1  UNL1       -0.2456
      9 O           8.0157   -4.6553    0.0000 O.3     1  UNL1       -0.3543
     10 O          11.0657   -2.8979    0.0000 O.2     1  UNL1       -0.2455
     11 C           4.7760    0.7139    0.0000 C.3     1  UNL1        0.0152
     12 C           3.9099    0.2139    0.0000 C.3     1  UNL1        0.0066
     13 C           5.6420   -0.7861    0.0000 C.3     1  UNL1        0.0242
     14 C           5.6420    0.2139    0.0000 C.3     1  UNL1       -0.0102
     15 C           2.9999    0.7207    0.0000 C.3     1  UNL1        0.0232
     16 C           3.9099   -0.7861    0.0000 C.3     1  UNL1        0.0897
     17 C           4.7760   -1.2861    0.0000 C.3     1  UNL1        0.0952
     18 C           4.7920    1.7554    0.0000 C.3     1  UNL1        0.1117
     19 C           2.9919    1.7623    0.0000 C.3     1  UNL1        0.0664
     20 C           6.3790   -1.4532    0.0000 C.2     1  UNL1       -0.0329
     21 C           2.4131   -0.0814    0.0000 C.3     1  UNL1        0.0562
     22 C           3.8940    2.2831    0.0000 C.3     1  UNL1        0.0116
     23 C           5.9739   -2.3610    0.0000 C.3     1  UNL1        0.0819
     24 C           5.6420    1.2139    0.0000 C.3     1  UNL1       -0.0555
     25 C           6.5080    0.7139    0.0000 C.3     1  UNL1        0.0492
     26 C           6.5080   -0.2861    0.0000 C.3     1  UNL1       -0.0530
     27 C           2.0000    0.7092    0.0000 C.3     1  UNL1       -0.0547
     28 C           7.3614   -1.5599    0.0000 C.2     1  UNL1       -0.0630
     29 C           6.7094   -3.0210    0.0000 C.3     1  UNL1       -0.0122
     30 C           7.5652   -2.5269    0.0000 C.3     1  UNL1        0.0102
     31 C           7.3740    0.2139    0.0000 C.2     1  UNL1        0.3071
     32 C           8.0325   -0.8185    0.0000 C.3     1  UNL1       -0.0429
     33 C           8.4784   -2.9344    0.0000 C.2     1  UNL1        0.0116
     34 C           5.6753    3.2452    0.0000 C.2     1  UNL1        0.3322
     35 C           8.6855   -3.9127    0.0000 C.3     1  UNL1        0.2265
     36 C           9.3448   -2.4352    0.0000 C.2     1  UNL1        0.0282
     37 C           6.5471    3.7352    0.0000 C.2     1  UNL1        0.0212
     38 C          10.0874   -3.1049    0.0000 C.2     1  UNL1        0.3345
     39 C           8.2401    1.7139    0.0000 C.3     1  UNL1        0.0817
     40 C           6.5586    4.7351    0.0000 C.2     1  UNL1       -0.0690
     41 C           7.4304    5.2251    0.0000 C.3     1  UNL1       -0.0435
     42 C           5.6985    5.2451    0.0000 C.3     1  UNL1       -0.0435
     43 H           3.9052    0.8338    0.0000 H       1  UNL1        0.0340
     44 H           6.1789   -0.0961    0.0000 H       1  UNL1        0.0322
     45 H           3.7940   -1.3952    0.0000 H       1  UNL1        0.0625
     46 H           4.2748   -1.6512    0.0000 H       1  UNL1        0.0631
     47 H           4.7980    2.3753    0.0000 H       1  UNL1        0.0740
     48 H           2.9907    2.3823    0.0000 H       1  UNL1        0.0601
     49 H           1.9653    0.3474    0.0000 H       1  UNL1        0.0566
     50 H           1.9292   -0.4689    0.0000 H       1  UNL1        0.0566
     51 H           4.2950    2.7560    0.0000 H       1  UNL1        0.0326
     52 H           3.4967    2.7591    0.0000 H       1  UNL1        0.0326
     53 H           5.7224   -2.9277    0.0000 H       1  UNL1        0.0644
     54 H           5.9520    0.6769    0.0000 H       1  UNL1        0.0236
     55 H           6.1789    1.5239    0.0000 H       1  UNL1        0.0236
     56 H           5.3320    1.7508    0.0000 H       1  UNL1        0.0236
     57 H           6.9065    1.1888    0.0000 H       1  UNL1        0.0381
     58 H           6.1095    1.1888    0.0000 H       1  UNL1        0.0381
     59 H           6.8180   -0.8231    0.0000 H       1  UNL1        0.0239
     60 H           7.0450    0.0239    0.0000 H       1  UNL1        0.0239
     61 H           6.1980    0.2508    0.0000 H       1  UNL1        0.0239
     62 H           1.9928    1.3291    0.0000 H       1  UNL1        0.0237
     63 H           1.3800    0.7020    0.0000 H       1  UNL1        0.0237
     64 H           2.0072    0.0892    0.0000 H       1  UNL1        0.0237
     65 H           6.2491   -3.4364    0.0000 H       1  UNL1        0.0302
     66 H           7.0741   -3.5224    0.0000 H       1  UNL1        0.0302
     67 H           8.0475   -2.1373    0.0000 H       1  UNL1        0.0394
     68 H           2.1216    2.8790    0.0000 H       1  UNL1        0.2098
     69 H           8.4922   -1.2346    0.0000 H       1  UNL1        0.0275
     70 H           8.4485   -0.3588    0.0000 H       1  UNL1        0.0275
     71 H           7.5728   -0.4025    0.0000 H       1  UNL1        0.0275
     72 H           8.9072   -4.4917    0.0000 H       1  UNL1        0.1108
     73 H           9.4102   -1.8186    0.0000 H       1  UNL1        0.0691
     74 H           7.0804    3.4190    0.0000 H       1  UNL1        0.0688
     75 H           8.8601    1.7139    0.0000 H       1  UNL1        0.0661
     76 H           8.2401    2.3339    0.0000 H       1  UNL1        0.0661
     77 H           7.6201    1.7139    0.0000 H       1  UNL1        0.0661
     78 H           8.2068   -5.2451    0.0000 H       1  UNL1        0.2139
     79 H           7.7342    4.6846    0.0000 H       1  UNL1        0.0274
     80 H           6.0146    5.7784    0.0000 H       1  UNL1        0.0274
     81 H           5.1651    5.5613    0.0000 H       1  UNL1        0.0274
     82 H           5.3823    4.7118    0.0000 H       1  UNL1        0.0274
     83 H           7.9709    5.5289    0.0000 H       1  UNL1        0.0274
     84 H           7.1266    5.7656    0.0000 H       1  UNL1        0.0274
@<TRIPOS>BOND
     1     1    16    1
     2     1    21    1
     3     2    17    1
     4     2    23    1
     5     3    18    1
     6     3    34    1
     7     4    19    1
     8     4    68    1
     9     5    31    1
    10     5    39    1
    11     6    31    2
    12     7    35    1
    13     7    38    1
    14     8    34    2
    15     9    35    1
    16     9    78    1
    17    10    38    2
    18    11    12    1
    19    11    14    1
    20    11    18    1
    21    11    24    1
    22    12    15    1
    23    12    16    1
    24    12    43    1
    25    13    14    1
    26    13    17    1
    27    13    20    1
    28    13    26    1
    29    14    25    1
    30    14    44    1
    31    15    19    1
    32    15    21    1
    33    15    27    1
    34    16    17    1
    35    16    45    1
    36    17    46    1
    37    18    22    1
    38    18    47    1
    39    19    22    1
    40    19    48    1
    41    20    23    1
    42    20    28    2
    43    21    49    1
    44    21    50    1
    45    22    51    1
    46    22    52    1
    47    23    29    1
    48    23    53    1
    49    24    54    1
    50    24    55    1
    51    24    56    1
    52    25    31    1
    53    25    57    1
    54    25    58    1
    55    26    59    1
    56    26    60    1
    57    26    61    1
    58    27    62    1
    59    27    63    1
    60    27    64    1
    61    28    30    1
    62    28    32    1
    63    29    30    1
    64    29    65    1
    65    29    66    1
    66    30    33    1
    67    30    67    1
    68    32    69    1
    69    32    70    1
    70    32    71    1
    71    33    35    1
    72    33    36    2
    73    34    37    1
    74    35    72    1
    75    36    38    1
    76    36    73    1
    77    37    40    2
    78    37    74    1
    79    39    75    1
    80    39    76    1
    81    39    77    1
    82    40    41    1
    83    40    42    1
    84    41    79    1
    85    41    83    1
    86    41    84    1
    87    42    80    1
    88    42    81    1
    89    42    82    1
