@<TRIPOS>MOLECULE
IMPHY009333
 49 50 0 0 0
SMALL
GASTEIGER

@<TRIPOS>ATOM
      1 O           2.5369   -3.5000    0.0000 O.3     1  UNL1       -0.4914
      2 O           2.5369   -1.5000    0.0000 O.3     1  UNL1       -0.5029
      3 O           5.1350    4.0000    0.0000 O.3     1  UNL1       -0.4951
      4 N           7.7331   -1.5000    0.0000 N.3     1  UNL1       -0.3080
      5 C           6.0010   -1.5000    0.0000 C.3     1  UNL1       -0.0142
      6 C           5.1350   -2.0000    0.0000 C.ar    1  UNL1       -0.0353
      7 C           6.8671   -2.0000    0.0000 C.3     1  UNL1        0.0023
      8 C           4.2690   -1.5000    0.0000 C.ar    1  UNL1        0.0233
      9 C           5.1350   -3.0000    0.0000 C.ar    1  UNL1       -0.0543
     10 C           3.4030   -2.0000    0.0000 C.ar    1  UNL1        0.1660
     11 C           3.4030   -3.0000    0.0000 C.ar    1  UNL1        0.1619
     12 C           4.2690   -3.5000    0.0000 C.ar    1  UNL1       -0.0160
     13 C           4.2690   -0.5000    0.0000 C.2     1  UNL1       -0.0502
     14 C           8.5991   -2.0000    0.0000 C.3     1  UNL1       -0.0130
     15 C           7.7331   -0.5000    0.0000 C.3     1  UNL1       -0.0130
     16 C           5.1350    0.0000    0.0000 C.2     1  UNL1       -0.0539
     17 C           5.1350    1.0000    0.0000 C.ar    1  UNL1       -0.0248
     18 C           6.0010    1.5000    0.0000 C.ar    1  UNL1       -0.0511
     19 C           4.2690    1.5000    0.0000 C.ar    1  UNL1       -0.0511
     20 C           6.0010    2.5000    0.0000 C.ar    1  UNL1       -0.0194
     21 C           4.2690    2.5000    0.0000 C.ar    1  UNL1       -0.0194
     22 C           5.1350    3.0000    0.0000 C.ar    1  UNL1        0.1201
     23 C           2.5369   -4.5000    0.0000 C.3     1  UNL1        0.0790
     24 C           6.0010    4.5000    0.0000 C.3     1  UNL1        0.0788
     25 H           6.3996   -1.0250    0.0000 H       1  UNL1        0.0326
     26 H           5.6025   -1.0250    0.0000 H       1  UNL1        0.0326
     27 H           6.4685   -2.4750    0.0000 H       1  UNL1        0.0429
     28 H           7.2656   -2.4750    0.0000 H       1  UNL1        0.0429
     29 H           5.6720   -3.3100    0.0000 H       1  UNL1        0.0622
     30 H           4.2690   -4.1200    0.0000 H       1  UNL1        0.0655
     31 H           3.7320   -0.1900    0.0000 H       1  UNL1        0.0625
     32 H           8.2891   -2.5369    0.0000 H       1  UNL1        0.0391
     33 H           8.3531   -0.5000    0.0000 H       1  UNL1        0.0391
     34 H           7.7331    0.1200    0.0000 H       1  UNL1        0.0391
     35 H           7.1131   -0.5000    0.0000 H       1  UNL1        0.0391
     36 H           9.1360   -2.3100    0.0000 H       1  UNL1        0.0391
     37 H           8.9091   -1.4631    0.0000 H       1  UNL1        0.0391
     38 H           5.6720   -0.3100    0.0000 H       1  UNL1        0.0624
     39 H           2.0000   -1.8100    0.0000 H       1  UNL1        0.2923
     40 H           6.5380    1.1900    0.0000 H       1  UNL1        0.0625
     41 H           3.7320    1.1900    0.0000 H       1  UNL1        0.0625
     42 H           6.5380    2.8100    0.0000 H       1  UNL1        0.0654
     43 H           3.7320    2.8100    0.0000 H       1  UNL1        0.0654
     44 H           1.9169   -4.5000    0.0000 H       1  UNL1        0.0660
     45 H           2.5369   -5.1200    0.0000 H       1  UNL1        0.0660
     46 H           3.1569   -4.5000    0.0000 H       1  UNL1        0.0660
     47 H           6.3110    3.9631    0.0000 H       1  UNL1        0.0660
     48 H           6.5380    4.8100    0.0000 H       1  UNL1        0.0660
     49 H           5.6910    5.0369    0.0000 H       1  UNL1        0.0660
@<TRIPOS>BOND
     1     1    11    1
     2     1    23    1
     3     2    10    1
     4     2    39    1
     5     3    22    1
     6     3    24    1
     7     4     7    1
     8     4    14    1
     9     4    15    1
    10     5     6    1
    11     5     7    1
    12     5    25    1
    13     5    26    1
    14     6     8   ar
    15     6     9   ar
    16     7    27    1
    17     7    28    1
    18     8    10   ar
    19     8    13    1
    20     9    12   ar
    21     9    29    1
    22    10    11   ar
    23    11    12   ar
    24    12    30    1
    25    13    16    2
    26    13    31    1
    27    14    32    1
    28    14    36    1
    29    14    37    1
    30    15    33    1
    31    15    34    1
    32    15    35    1
    33    16    17    1
    34    16    38    1
    35    17    18   ar
    36    17    19   ar
    37    18    20   ar
    38    18    40    1
    39    19    21   ar
    40    19    41    1
    41    20    22   ar
    42    20    42    1
    43    21    22   ar
    44    21    43    1
    45    23    44    1
    46    23    45    1
    47    23    46    1
    48    24    47    1
    49    24    48    1
    50    24    49    1
