@<TRIPOS>MOLECULE
IMPHY016825
 27 28 0 0 0
SMALL
GASTEIGER

@<TRIPOS>ATOM
      1 O           2.6196   -1.8378    0.0000 O.3     1  UNL1       -0.3845
      2 C           5.7091   -0.0803    0.0000 C.3     1  UNL1       -0.0050
      3 C           4.5689    0.8768    0.0000 C.3     1  UNL1       -0.0135
      4 C           4.3101   -0.0891    0.0000 C.2     1  UNL1       -0.0361
      5 C           3.0891   -0.9548    0.0000 C.3     1  UNL1        0.0848
      6 C           2.5357    0.5656    0.0000 C.3     1  UNL1       -0.0431
      7 C           3.8323    1.8594    0.0000 C.2     1  UNL1       -0.0776
      8 C           2.2601   -0.3956    0.0000 C.3     1  UNL1       -0.0198
      9 C           6.5751    0.4197    0.0000 C.3     1  UNL1       -0.0555
     10 C           6.2091   -0.9464    0.0000 C.3     1  UNL1       -0.0555
     11 C           3.6190   -1.8029    0.0000 C.3     1  UNL1       -0.0322
     12 H           5.0193    1.3030    0.0000 H       1  UNL1        0.0351
     13 H           2.5306    1.1856    0.0000 H       1  UNL1        0.0272
     14 H           1.9214    0.6494    0.0000 H       1  UNL1        0.0272
     15 H           3.5672    2.4198    0.0000 H       1  UNL1        0.0576
     16 H           1.6852   -0.1634    0.0000 H       1  UNL1        0.0296
     17 H           1.9690   -0.9430    0.0000 H       1  UNL1        0.0296
     18 H           6.8851   -0.1173    0.0000 H       1  UNL1        0.0238
     19 H           7.1120    0.7297    0.0000 H       1  UNL1        0.0238
     20 H           6.2651    0.9566    0.0000 H       1  UNL1        0.0238
     21 H           5.6721   -1.2564    0.0000 H       1  UNL1        0.0238
     22 H           6.5191   -1.4833    0.0000 H       1  UNL1        0.0238
     23 H           6.7460   -0.6364    0.0000 H       1  UNL1        0.0238
     24 H           3.0932   -2.1314    0.0000 H       1  UNL1        0.0260
     25 H           3.9476   -2.3286    0.0000 H       1  UNL1        0.0260
     26 H           4.1448   -1.4743    0.0000 H       1  UNL1        0.0260
     27 H           2.0000   -1.8594    0.0000 H       1  UNL1        0.2106
@<TRIPOS>BOND
     1     1     5    1
     2     1    27    1
     3     2     3    1
     4     2     4    1
     5     2     9    1
     6     2    10    1
     7     3     6    1
     8     3     7    1
     9     3    12    1
    10     4     5    1
    11     4     7    2
    12     5     8    1
    13     5    11    1
    14     6     8    1
    15     6    13    1
    16     6    14    1
    17     7    15    1
    18     8    16    1
    19     8    17    1
    20     9    18    1
    21     9    19    1
    22     9    20    1
    23    10    21    1
    24    10    22    1
    25    10    23    1
    26    11    24    1
    27    11    25    1
    28    11    26    1
