@<TRIPOS>MOLECULE
IMPHY008104
 34 36 0 0 0
SMALL
GASTEIGER

@<TRIPOS>ATOM
      1 O           6.0682    0.0950    0.0000 O.3     1  UNL1       -0.4812
      2 O           7.8003    2.0950    0.0000 O.3     1  UNL1       -0.3875
      3 O           2.5381    0.0709    0.0000 O.3     1  UNL1       -0.5066
      4 O           8.6663   -2.4050    0.0000 O.3     1  UNL1       -0.5033
      5 O          10.3984   -1.4050    0.0000 O.3     1  UNL1       -0.5033
      6 C           6.9343    1.5950    0.0000 C.3     1  UNL1        0.1002
      7 C           6.9343    0.5950    0.0000 C.3     1  UNL1        0.1513
      8 C           6.0682    2.0950    0.0000 C.3     1  UNL1        0.0057
      9 C           5.2022    1.5950    0.0000 C.ar    1  UNL1       -0.0029
     10 C           7.8003    0.0950    0.0000 C.ar    1  UNL1       -0.0012
     11 C           5.2022    0.5950    0.0000 C.ar    1  UNL1        0.1282
     12 C           4.3083    2.1297    0.0000 C.ar    1  UNL1       -0.0516
     13 C           4.3083    0.0603    0.0000 C.ar    1  UNL1        0.0218
     14 C           7.8003   -0.9050    0.0000 C.ar    1  UNL1       -0.0098
     15 C           8.6663    0.5950    0.0000 C.ar    1  UNL1       -0.0513
     16 C           3.4022    1.6158    0.0000 C.ar    1  UNL1       -0.0197
     17 C           3.4022    0.5742    0.0000 C.ar    1  UNL1        0.1203
     18 C           8.6663   -1.4050    0.0000 C.ar    1  UNL1        0.1586
     19 C           9.5323    0.0950    0.0000 C.ar    1  UNL1       -0.0162
     20 C           9.5323   -0.9050    0.0000 C.ar    1  UNL1        0.1582
     21 H           6.9343    2.2150    0.0000 H       1  UNL1        0.0637
     22 H           6.9343   -0.0250    0.0000 H       1  UNL1        0.0811
     23 H           6.4668    2.5700    0.0000 H       1  UNL1        0.0341
     24 H           5.6697    2.5700    0.0000 H       1  UNL1        0.0341
     25 H           4.3154    2.7496    0.0000 H       1  UNL1        0.0623
     26 H           4.3154   -0.5596    0.0000 H       1  UNL1        0.0691
     27 H           7.2634   -1.2150    0.0000 H       1  UNL1        0.0659
     28 H           8.6663    1.2150    0.0000 H       1  UNL1        0.0623
     29 H           7.8003    2.7150    0.0000 H       1  UNL1        0.2100
     30 H           2.8665    1.9279    0.0000 H       1  UNL1        0.0654
     31 H          10.0693    0.4050    0.0000 H       1  UNL1        0.0655
     32 H           2.0000    0.3788    0.0000 H       1  UNL1        0.2921
     33 H           9.2033   -2.7150    0.0000 H       1  UNL1        0.2923
     34 H          10.9353   -1.0950    0.0000 H       1  UNL1        0.2923
@<TRIPOS>BOND
     1     1     7    1
     2     1    11    1
     3     6     2    1
     4     2    29    1
     5     3    17    1
     6     3    32    1
     7     4    18    1
     8     4    33    1
     9     5    20    1
    10     5    34    1
    11     6     7    1
    12     6     8    1
    13     6    21    1
    14     7    10    1
    15     7    22    1
    16     8     9    1
    17     8    23    1
    18     8    24    1
    19     9    11   ar
    20     9    12   ar
    21    10    14   ar
    22    10    15   ar
    23    11    13   ar
    24    12    16   ar
    25    12    25    1
    26    13    17   ar
    27    13    26    1
    28    14    18   ar
    29    14    27    1
    30    15    19   ar
    31    15    28    1
    32    16    17   ar
    33    16    30    1
    34    18    20   ar
    35    19    20   ar
    36    19    31    1
