@<TRIPOS>MOLECULE
IMPHY016495
 38 39 0 0 0
SMALL
GASTEIGER

@<TRIPOS>ATOM
      1 O           2.8660    1.5000    0.0000 O.2     1  UNL1       -0.2920
      2 C           5.4641   -0.0000    0.0000 C.3     1  UNL1       -0.0072
      3 C           6.3580   -0.5347    0.0000 C.3     1  UNL1       -0.0347
      4 C           4.5981   -0.5000    0.0000 C.3     1  UNL1       -0.0301
      5 C           5.4641    1.0000    0.0000 C.2     1  UNL1       -0.0601
      6 C           7.2641   -0.0208    0.0000 C.3     1  UNL1       -0.0494
      7 C           6.3580    1.5346    0.0000 C.3     1  UNL1       -0.0308
      8 C           7.2641    1.0208    0.0000 C.3     1  UNL1       -0.0491
      9 C           3.7320   -0.0000    0.0000 C.3     1  UNL1        0.0428
     10 C           5.4641   -1.0000    0.0000 C.3     1  UNL1       -0.0556
     11 C           6.3465   -1.5346    0.0000 C.3     1  UNL1       -0.0616
     12 C           4.5981    1.5000    0.0000 C.2     1  UNL1       -0.0188
     13 C           3.7320    1.0000    0.0000 C.2     1  UNL1        0.1631
     14 C           2.8660   -0.5000    0.0000 C.2     1  UNL1       -0.0692
     15 C           2.8660   -1.5000    0.0000 C.3     1  UNL1       -0.0434
     16 C           2.0000   -0.0000    0.0000 C.2     1  UNL1       -0.0990
     17 H           6.8920   -0.8499    0.0000 H       1  UNL1        0.0306
     18 H           4.1996   -0.9750    0.0000 H       1  UNL1        0.0284
     19 H           4.9966   -0.9750    0.0000 H       1  UNL1        0.0284
     20 H           7.4732   -0.6045    0.0000 H       1  UNL1        0.0268
     21 H           7.8750    0.0852    0.0000 H       1  UNL1        0.0268
     22 H           6.7517    2.0136    0.0000 H       1  UNL1        0.0310
     23 H           5.9534    2.0044    0.0000 H       1  UNL1        0.0310
     24 H           7.8750    0.9147    0.0000 H       1  UNL1        0.0268
     25 H           7.4732    1.6045    0.0000 H       1  UNL1        0.0268
     26 H           3.7320   -0.6200    0.0000 H       1  UNL1        0.0426
     27 H           4.8441   -1.0000    0.0000 H       1  UNL1        0.0238
     28 H           5.4641   -1.6200    0.0000 H       1  UNL1        0.0238
     29 H           6.0841   -1.0000    0.0000 H       1  UNL1        0.0238
     30 H           5.7265   -1.5275    0.0000 H       1  UNL1        0.0233
     31 H           6.3393   -2.1546    0.0000 H       1  UNL1        0.0233
     32 H           6.9664   -1.5418    0.0000 H       1  UNL1        0.0233
     33 H           4.5981    2.1200    0.0000 H       1  UNL1        0.0652
     34 H           2.2460   -1.5000    0.0000 H       1  UNL1        0.0274
     35 H           2.8660   -2.1200    0.0000 H       1  UNL1        0.0274
     36 H           3.4860   -1.5000    0.0000 H       1  UNL1        0.0274
     37 H           2.0000    0.6200    0.0000 H       1  UNL1        0.0535
     38 H           1.4631   -0.3100    0.0000 H       1  UNL1        0.0535
@<TRIPOS>BOND
     1     1    13    2
     2     2     3    1
     3     2     4    1
     4     2     5    1
     5     2    10    1
     6     3     6    1
     7     3    11    1
     8     3    17    1
     9     4     9    1
    10     4    18    1
    11     4    19    1
    12     5     7    1
    13     5    12    2
    14     6     8    1
    15     6    20    1
    16     6    21    1
    17     7     8    1
    18     7    22    1
    19     7    23    1
    20     8    24    1
    21     8    25    1
    22     9    13    1
    23     9    14    1
    24     9    26    1
    25    10    27    1
    26    10    28    1
    27    10    29    1
    28    11    30    1
    29    11    31    1
    30    11    32    1
    31    12    13    1
    32    12    33    1
    33    14    15    1
    34    14    16    2
    35    15    34    1
    36    15    35    1
    37    15    36    1
    38    16    37    1
    39    16    38    1
