@<TRIPOS>MOLECULE
IMPHY015412
 71 70 0 0 0
SMALL
GASTEIGER

@<TRIPOS>ATOM
      1 C           5.4641    0.2500    0.0000 C.3     1  UNL1       -0.0439
      2 C           6.3301    0.7500    0.0000 C.3     1  UNL1       -0.0505
      3 C           7.1962    0.2500    0.0000 C.3     1  UNL1       -0.0528
      4 C           8.0622    0.7500    0.0000 C.3     1  UNL1       -0.0530
      5 C           8.9282    0.2500    0.0000 C.3     1  UNL1       -0.0531
      6 C           4.5981    0.7500    0.0000 C.3     1  UNL1       -0.0505
      7 C           9.7942    0.7500    0.0000 C.3     1  UNL1       -0.0531
      8 C          10.6603    0.2500    0.0000 C.3     1  UNL1       -0.0531
      9 C          11.5263    0.7500    0.0000 C.3     1  UNL1       -0.0531
     10 C          12.3923    0.2500    0.0000 C.3     1  UNL1       -0.0531
     11 C          13.2583    0.7500    0.0000 C.3     1  UNL1       -0.0531
     12 C          14.1244    0.2500    0.0000 C.3     1  UNL1       -0.0531
     13 C           3.7320    0.2500    0.0000 C.3     1  UNL1       -0.0531
     14 C           5.4641   -0.7500    0.0000 C.3     1  UNL1       -0.0624
     15 C          14.9904    0.7500    0.0000 C.3     1  UNL1       -0.0531
     16 C          15.8564    0.2500    0.0000 C.3     1  UNL1       -0.0531
     17 C          16.7224    0.7500    0.0000 C.3     1  UNL1       -0.0531
     18 C           2.8660    0.7500    0.0000 C.3     1  UNL1       -0.0559
     19 C          17.5885    0.2500    0.0000 C.3     1  UNL1       -0.0531
     20 C          18.4545    0.7500    0.0000 C.3     1  UNL1       -0.0533
     21 C           2.0000    0.2500    0.0000 C.3     1  UNL1       -0.0653
     22 C          19.3205    0.2500    0.0000 C.3     1  UNL1       -0.0559
     23 C          20.1865    0.7500    0.0000 C.3     1  UNL1       -0.0653
     24 H           6.0010   -0.0600    0.0000 H       1  UNL1        0.0298
     25 H           6.7287    1.2250    0.0000 H       1  UNL1        0.0268
     26 H           5.9316    1.2250    0.0000 H       1  UNL1        0.0268
     27 H           6.7976   -0.2249    0.0000 H       1  UNL1        0.0265
     28 H           7.5947   -0.2249    0.0000 H       1  UNL1        0.0265
     29 H           8.4607    1.2250    0.0000 H       1  UNL1        0.0265
     30 H           7.6636    1.2250    0.0000 H       1  UNL1        0.0265
     31 H           8.5297   -0.2249    0.0000 H       1  UNL1        0.0265
     32 H           9.3267   -0.2249    0.0000 H       1  UNL1        0.0265
     33 H           4.9966    1.2250    0.0000 H       1  UNL1        0.0268
     34 H           4.1996    1.2250    0.0000 H       1  UNL1        0.0268
     35 H          10.1928    1.2250    0.0000 H       1  UNL1        0.0265
     36 H           9.3957    1.2250    0.0000 H       1  UNL1        0.0265
     37 H          10.2617   -0.2249    0.0000 H       1  UNL1        0.0265
     38 H          11.0588   -0.2249    0.0000 H       1  UNL1        0.0265
     39 H          11.9248    1.2250    0.0000 H       1  UNL1        0.0265
     40 H          11.1278    1.2250    0.0000 H       1  UNL1        0.0265
     41 H          11.9938   -0.2249    0.0000 H       1  UNL1        0.0265
     42 H          12.7908   -0.2249    0.0000 H       1  UNL1        0.0265
     43 H          13.6569    1.2250    0.0000 H       1  UNL1        0.0265
     44 H          12.8598    1.2250    0.0000 H       1  UNL1        0.0265
     45 H          13.7258   -0.2249    0.0000 H       1  UNL1        0.0265
     46 H          14.5229   -0.2249    0.0000 H       1  UNL1        0.0265
     47 H           3.3335   -0.2249    0.0000 H       1  UNL1        0.0265
     48 H           4.1306   -0.2249    0.0000 H       1  UNL1        0.0265
     49 H           4.8441   -0.7500    0.0000 H       1  UNL1        0.0232
     50 H           5.4641   -1.3700    0.0000 H       1  UNL1        0.0232
     51 H           6.0841   -0.7500    0.0000 H       1  UNL1        0.0232
     52 H          15.3889    1.2250    0.0000 H       1  UNL1        0.0265
     53 H          14.5919    1.2250    0.0000 H       1  UNL1        0.0265
     54 H          15.4579   -0.2249    0.0000 H       1  UNL1        0.0265
     55 H          16.2549   -0.2249    0.0000 H       1  UNL1        0.0265
     56 H          17.1210    1.2250    0.0000 H       1  UNL1        0.0265
     57 H          16.3239    1.2250    0.0000 H       1  UNL1        0.0265
     58 H           3.2646    1.2250    0.0000 H       1  UNL1        0.0263
     59 H           2.4675    1.2250    0.0000 H       1  UNL1        0.0263
     60 H          17.1899   -0.2249    0.0000 H       1  UNL1        0.0265
     61 H          17.9870   -0.2249    0.0000 H       1  UNL1        0.0265
     62 H          18.8530    1.2250    0.0000 H       1  UNL1        0.0265
     63 H          18.0560    1.2250    0.0000 H       1  UNL1        0.0265
     64 H           1.6900    0.7869    0.0000 H       1  UNL1        0.0230
     65 H           1.4631   -0.0600    0.0000 H       1  UNL1        0.0230
     66 H           2.3100   -0.2869    0.0000 H       1  UNL1        0.0230
     67 H          18.9220   -0.2249    0.0000 H       1  UNL1        0.0263
     68 H          19.7190   -0.2249    0.0000 H       1  UNL1        0.0263
     69 H          20.4965    0.2131    0.0000 H       1  UNL1        0.0230
     70 H          20.7235    1.0600    0.0000 H       1  UNL1        0.0230
     71 H          19.8765    1.2869    0.0000 H       1  UNL1        0.0230
@<TRIPOS>BOND
     1     1     2    1
     2     1     6    1
     3     1    14    1
     4     1    24    1
     5     2     3    1
     6     2    25    1
     7     2    26    1
     8     3     4    1
     9     3    27    1
    10     3    28    1
    11     4     5    1
    12     4    29    1
    13     4    30    1
    14     5     7    1
    15     5    31    1
    16     5    32    1
    17     6    13    1
    18     6    33    1
    19     6    34    1
    20     7     8    1
    21     7    35    1
    22     7    36    1
    23     8     9    1
    24     8    37    1
    25     8    38    1
    26     9    10    1
    27     9    39    1
    28     9    40    1
    29    10    11    1
    30    10    41    1
    31    10    42    1
    32    11    12    1
    33    11    43    1
    34    11    44    1
    35    12    15    1
    36    12    45    1
    37    12    46    1
    38    13    18    1
    39    13    47    1
    40    13    48    1
    41    14    49    1
    42    14    50    1
    43    14    51    1
    44    15    16    1
    45    15    52    1
    46    15    53    1
    47    16    17    1
    48    16    54    1
    49    16    55    1
    50    17    19    1
    51    17    56    1
    52    17    57    1
    53    18    21    1
    54    18    58    1
    55    18    59    1
    56    19    20    1
    57    19    60    1
    58    19    61    1
    59    20    22    1
    60    20    62    1
    61    20    63    1
    62    21    64    1
    63    21    65    1
    64    21    66    1
    65    22    23    1
    66    22    67    1
    67    22    68    1
    68    23    69    1
    69    23    70    1
    70    23    71    1
