@<TRIPOS>MOLECULE
IMPHY014600
 106 109 0 0 0
SMALL
GASTEIGER

@<TRIPOS>ATOM
      1 O           4.2690   -0.0600    0.0000 O.3     1  UNL1       -0.3395
      2 O           6.0010   -0.0600    0.0000 O.3     1  UNL1       -0.3404
      3 O           6.0010   -2.0600    0.0000 O.3     1  UNL1       -0.4504
      4 O           4.2690   -3.0600    0.0000 O.3     1  UNL1       -0.3853
      5 O           2.5369   -2.0600    0.0000 O.3     1  UNL1       -0.3864
      6 O          12.9292    4.9400    0.0000 O.3     1  UNL1       -0.3313
      7 O           2.5369    0.9400    0.0000 O.3     1  UNL1       -0.3924
      8 O          15.5273    5.4400    0.0000 O.3     1  UNL1       -0.3865
      9 O          15.5273    3.4400    0.0000 O.3     1  UNL1       -0.3864
     10 O          12.0632    3.4400    0.0000 O.3     1  UNL1       -0.4535
     11 O          13.7953    2.4400    0.0000 O.3     1  UNL1       -0.3829
     12 O          14.6613    6.9400    0.0000 O.3     1  UNL1       -0.3924
     13 O           6.8671    3.4400    0.0000 O.3     1  UNL1       -0.4604
     14 O           8.5010    0.0740    0.0000 O.3     1  UNL1       -0.4805
     15 O           7.7331    1.9400    0.0000 O.2     1  UNL1       -0.2507
     16 O           5.1350   -3.5600    0.0000 O.2     1  UNL1       -0.2456
     17 O           7.0010   -0.7921    0.0000 O.2     1  UNL1       -0.2509
     18 O          12.0632    5.4400    0.0000 O.3     1  UNL1       -0.4913
     19 O          10.3312    2.4400    0.0000 O.3     1  UNL1       -0.5032
     20 O          10.3312   -6.5600    0.0000 O.3     1  UNL1       -0.4951
     21 C           5.1350   -1.5600    0.0000 C.3     1  UNL1        0.1819
     22 C           4.2690   -2.0600    0.0000 C.3     1  UNL1        0.1251
     23 C           3.4030   -1.5600    0.0000 C.3     1  UNL1        0.1130
     24 C           5.1350   -0.5600    0.0000 C.3     1  UNL1        0.1998
     25 C           3.4030   -0.5600    0.0000 C.3     1  UNL1        0.1131
     26 C           6.0010    0.9400    0.0000 C.3     1  UNL1        0.0899
     27 C           2.5369   -0.0600    0.0000 C.3     1  UNL1        0.0730
     28 C          14.6613    4.9400    0.0000 C.3     1  UNL1        0.1120
     29 C          14.6613    3.9400    0.0000 C.3     1  UNL1        0.1152
     30 C          13.7953    5.4400    0.0000 C.3     1  UNL1        0.1140
     31 C          13.7953    3.4400    0.0000 C.3     1  UNL1        0.1454
     32 C           6.0010    1.9400    0.0000 C.3     1  UNL1        0.0743
     33 C           7.0010    0.9400    0.0000 C.3     1  UNL1        0.0741
     34 C          12.9292    3.9400    0.0000 C.3     1  UNL1        0.2311
     35 C           5.0010    0.9400    0.0000 C.3     1  UNL1       -0.0347
     36 C          13.7953    6.4400    0.0000 C.3     1  UNL1        0.0731
     37 C           6.8671    2.4400    0.0000 C.2     1  UNL1        0.3102
     38 C           6.0010   -3.0600    0.0000 C.2     1  UNL1        0.3324
     39 C           7.5010    0.0740    0.0000 C.2     1  UNL1        0.3075
     40 C          11.1972    3.9400    0.0000 C.ar    1  UNL1        0.2065
     41 C           6.8671   -3.5600    0.0000 C.2     1  UNL1        0.0231
     42 C          11.1972    4.9400    0.0000 C.ar    1  UNL1        0.1658
     43 C          10.3312    3.4400    0.0000 C.ar    1  UNL1        0.1628
     44 C           7.7331    3.9400    0.0000 C.3     1  UNL1        0.1110
     45 C           6.8671   -4.5600    0.0000 C.2     1  UNL1       -0.0478
     46 C           9.4651    4.9400    0.0000 C.ar    1  UNL1       -0.0181
     47 C          10.3312    5.4400    0.0000 C.ar    1  UNL1       -0.0089
     48 C           9.4651    3.9400    0.0000 C.ar    1  UNL1       -0.0091
     49 C           7.7331    4.9400    0.0000 C.2     1  UNL1       -0.0465
     50 C           8.5991    5.4400    0.0000 C.2     1  UNL1       -0.0551
     51 C           7.7331   -5.0600    0.0000 C.ar    1  UNL1       -0.0246
     52 C          12.0632    6.4400    0.0000 C.3     1  UNL1        0.0790
     53 C           8.5991   -4.5600    0.0000 C.ar    1  UNL1       -0.0511
     54 C           7.7331   -6.0600    0.0000 C.ar    1  UNL1       -0.0511
     55 C           9.4651   -5.0600    0.0000 C.ar    1  UNL1       -0.0194
     56 C           8.5991   -6.5600    0.0000 C.ar    1  UNL1       -0.0194
     57 C           9.4651   -6.0600    0.0000 C.ar    1  UNL1        0.1201
     58 C          10.3312   -7.5600    0.0000 C.3     1  UNL1        0.0788
     59 H           5.1350   -2.1800    0.0000 H       1  UNL1        0.0813
     60 H           3.7320   -2.3700    0.0000 H       1  UNL1        0.0659
     61 H           3.4030   -2.1800    0.0000 H       1  UNL1        0.0647
     62 H           5.1350    0.0600    0.0000 H       1  UNL1        0.0949
     63 H           3.4030    0.0600    0.0000 H       1  UNL1        0.0647
     64 H           1.9264    0.0477    0.0000 H       1  UNL1        0.0584
     65 H           2.3249   -0.6426    0.0000 H       1  UNL1        0.0584
     66 H          14.6613    5.5600    0.0000 H       1  UNL1        0.0647
     67 H          15.1982    4.2500    0.0000 H       1  UNL1        0.0648
     68 H          13.2583    5.7500    0.0000 H       1  UNL1        0.0647
     69 H          14.3322    3.1300    0.0000 H       1  UNL1        0.0683
     70 H           5.7890    2.5226    0.0000 H       1  UNL1        0.0406
     71 H           5.3905    1.8323    0.0000 H       1  UNL1        0.0406
     72 H           7.5836    1.1520    0.0000 H       1  UNL1        0.0406
     73 H           6.8934    1.5506    0.0000 H       1  UNL1        0.0406
     74 H          12.3923    4.2500    0.0000 H       1  UNL1        0.1084
     75 H           5.0010    1.5600    0.0000 H       1  UNL1        0.0258
     76 H           4.3810    0.9400    0.0000 H       1  UNL1        0.0258
     77 H           5.0010    0.3200    0.0000 H       1  UNL1        0.0258
     78 H           3.7320   -3.3700    0.0000 H       1  UNL1        0.2101
     79 H           2.0000   -1.7500    0.0000 H       1  UNL1        0.2100
     80 H          13.5832    7.0226    0.0000 H       1  UNL1        0.0584
     81 H          13.1847    6.3323    0.0000 H       1  UNL1        0.0584
     82 H           2.0000    1.2500    0.0000 H       1  UNL1        0.2095
     83 H          16.0643    5.1300    0.0000 H       1  UNL1        0.2100
     84 H          16.0643    3.7500    0.0000 H       1  UNL1        0.2100
     85 H          14.3322    2.1300    0.0000 H       1  UNL1        0.2102
     86 H          14.6613    7.5600    0.0000 H       1  UNL1        0.2095
     87 H           7.4040   -3.2500    0.0000 H       1  UNL1        0.0689
     88 H           8.8110   -0.4630    0.0000 H       1  UNL1        0.2951
     89 H           7.9451    3.3574    0.0000 H       1  UNL1        0.0743
     90 H           8.3437    4.0477    0.0000 H       1  UNL1        0.0743
     91 H           6.3301   -4.8700    0.0000 H       1  UNL1        0.0626
     92 H          10.3312    6.0600    0.0000 H       1  UNL1        0.0661
     93 H           8.9282    3.6300    0.0000 H       1  UNL1        0.0661
     94 H           7.1962    5.2500    0.0000 H       1  UNL1        0.0606
     95 H           8.5991    6.0600    0.0000 H       1  UNL1        0.0621
     96 H          10.8681    2.1300    0.0000 H       1  UNL1        0.2923
     97 H          12.6832    6.4400    0.0000 H       1  UNL1        0.0660
     98 H          12.0632    7.0600    0.0000 H       1  UNL1        0.0660
     99 H          11.4432    6.4400    0.0000 H       1  UNL1        0.0660
    100 H           8.5991   -3.9400    0.0000 H       1  UNL1        0.0625
    101 H           7.1962   -6.3700    0.0000 H       1  UNL1        0.0625
    102 H          10.0021   -4.7500    0.0000 H       1  UNL1        0.0654
    103 H           8.5991   -7.1800    0.0000 H       1  UNL1        0.0654
    104 H           9.7112   -7.5600    0.0000 H       1  UNL1        0.0660
    105 H          10.3312   -8.1800    0.0000 H       1  UNL1        0.0660
    106 H          10.9512   -7.5600    0.0000 H       1  UNL1        0.0660
@<TRIPOS>BOND
     1     1    24    1
     2     1    25    1
     3    24     2    1
     4     2    26    1
     5    21     3    1
     6     3    38    1
     7    22     4    1
     8     4    78    1
     9    23     5    1
    10     5    79    1
    11     6    30    1
    12     6    34    1
    13     7    27    1
    14     7    82    1
    15    28     8    1
    16     8    83    1
    17    29     9    1
    18     9    84    1
    19    34    10    1
    20    10    40    1
    21    31    11    1
    22    11    85    1
    23    12    36    1
    24    12    86    1
    25    13    37    1
    26    13    44    1
    27    14    39    1
    28    14    88    1
    29    15    37    2
    30    16    38    2
    31    17    39    2
    32    18    42    1
    33    18    52    1
    34    19    43    1
    35    19    96    1
    36    20    57    1
    37    20    58    1
    38    21    22    1
    39    21    24    1
    40    21    59    1
    41    22    23    1
    42    22    60    1
    43    23    25    1
    44    23    61    1
    45    24    62    1
    46    25    27    1
    47    25    63    1
    48    26    32    1
    49    26    33    1
    50    26    35    1
    51    27    64    1
    52    27    65    1
    53    28    29    1
    54    28    30    1
    55    28    66    1
    56    29    31    1
    57    29    67    1
    58    30    36    1
    59    30    68    1
    60    31    34    1
    61    31    69    1
    62    32    37    1
    63    32    70    1
    64    32    71    1
    65    33    39    1
    66    33    72    1
    67    33    73    1
    68    34    74    1
    69    35    75    1
    70    35    76    1
    71    35    77    1
    72    36    80    1
    73    36    81    1
    74    38    41    1
    75    40    42   ar
    76    40    43   ar
    77    41    45    2
    78    41    87    1
    79    42    47   ar
    80    43    48   ar
    81    44    49    1
    82    44    89    1
    83    44    90    1
    84    45    51    1
    85    45    91    1
    86    46    47   ar
    87    46    48   ar
    88    46    50    1
    89    47    92    1
    90    48    93    1
    91    49    50    2
    92    49    94    1
    93    50    95    1
    94    51    53   ar
    95    51    54   ar
    96    52    97    1
    97    52    98    1
    98    52    99    1
    99    53    55   ar
   100    53   100    1
   101    54    56   ar
   102    54   101    1
   103    55    57   ar
   104    55   102    1
   105    56    57   ar
   106    56   103    1
   107    58   104    1
   108    58   105    1
   109    58   106    1
