@<TRIPOS>MOLECULE
IMPHY011116
 45 47 0 0 0
SMALL
GASTEIGER

@<TRIPOS>ATOM
      1 O           6.8671    0.1550    0.0000 O.3     1  UNL1       -0.3092
      2 O           5.1350    0.1550    0.0000 O.3     1  UNL1       -0.3404
      3 O           6.0010    1.6550    0.0000 O.2     1  UNL1       -0.4703
      4 O           9.4893    0.7639    0.0000 O.3     1  UNL1       -0.3877
      5 O           6.8671   -1.8450    0.0000 O.3     1  UNL1       -0.3841
      6 O           5.1350   -2.8450    0.0000 O.3     1  UNL1       -0.3864
      7 O           3.4030   -1.8450    0.0000 O.3     1  UNL1       -0.3865
      8 O           2.5369   -0.3450    0.0000 O.3     1  UNL1       -0.3924
      9 C           7.7331    1.6550    0.0000 C.3     1  UNL1        0.0752
     10 C           8.6793    1.3503    0.0000 C.3     1  UNL1        0.0792
     11 C           6.8671    1.1550    0.0000 C.3     1  UNL1        0.2128
     12 C           9.2629    2.1550    0.0000 C.3     1  UNL1       -0.0047
     13 C           7.7331    2.6550    0.0000 C.2     1  UNL1       -0.0366
     14 C           6.0010   -0.3450    0.0000 C.3     1  UNL1        0.1918
     15 C           6.0010   -1.3450    0.0000 C.3     1  UNL1        0.1342
     16 C           5.1350   -1.8450    0.0000 C.3     1  UNL1        0.1141
     17 C           4.2690   -1.3450    0.0000 C.3     1  UNL1        0.1119
     18 C           8.6793    2.9597    0.0000 C.2     1  UNL1       -0.0775
     19 C           4.2690   -0.3450    0.0000 C.3     1  UNL1        0.1130
     20 C           8.3719    0.3987    0.0000 C.3     1  UNL1       -0.0350
     21 C           6.8671    3.1550    0.0000 C.2     1  UNL1       -0.0238
     22 C           3.4030    0.1550    0.0000 C.3     1  UNL1        0.0730
     23 C           6.0010    2.6550    0.0000 C.2     1  UNL1        0.0881
     24 H           7.8230    0.8098    0.0000 H       1  UNL1        0.0438
     25 H           7.4040    0.8450    0.0000 H       1  UNL1        0.1063
     26 H           9.7238    1.7403    0.0000 H       1  UNL1        0.0335
     27 H           9.7238    2.5697    0.0000 H       1  UNL1        0.0335
     28 H           6.0010    0.2750    0.0000 H       1  UNL1        0.0939
     29 H           6.0010   -1.9650    0.0000 H       1  UNL1        0.0671
     30 H           4.5981   -2.1550    0.0000 H       1  UNL1        0.0648
     31 H           3.7320   -1.0350    0.0000 H       1  UNL1        0.0647
     32 H           8.8719    3.5490    0.0000 H       1  UNL1        0.0576
     33 H           4.2690    0.2750    0.0000 H       1  UNL1        0.0647
     34 H           7.7820    0.5892    0.0000 H       1  UNL1        0.0258
     35 H           8.1814   -0.1913    0.0000 H       1  UNL1        0.0258
     36 H           8.9619    0.2081    0.0000 H       1  UNL1        0.0258
     37 H           6.8671    3.7750    0.0000 H       1  UNL1        0.0651
     38 H          10.0553    1.0170    0.0000 H       1  UNL1        0.2102
     39 H           3.8015    0.6299    0.0000 H       1  UNL1        0.0584
     40 H           3.0044    0.6299    0.0000 H       1  UNL1        0.0584
     41 H           5.4641    2.9650    0.0000 H       1  UNL1        0.1024
     42 H           6.8671   -2.4650    0.0000 H       1  UNL1        0.2101
     43 H           4.5981   -3.1550    0.0000 H       1  UNL1        0.2100
     44 H           3.4030   -2.4650    0.0000 H       1  UNL1        0.2100
     45 H           2.0000   -0.0350    0.0000 H       1  UNL1        0.2095
@<TRIPOS>BOND
     1    11     1    1
     2    14     1    1
     3     2    14    1
     4     2    19    1
     5     3    11    1
     6     3    23    1
     7    10     4    1
     8     4    38    1
     9    15     5    1
    10     5    42    1
    11    16     6    1
    12     6    43    1
    13    17     7    1
    14     7    44    1
    15     8    22    1
    16     8    45    1
    17     9    10    1
    18     9    11    1
    19     9    13    1
    20     9    24    1
    21    10    12    1
    22    10    20    1
    23    11    25    1
    24    12    18    1
    25    12    26    1
    26    12    27    1
    27    13    18    2
    28    13    21    1
    29    14    15    1
    30    14    28    1
    31    15    16    1
    32    15    29    1
    33    16    17    1
    34    16    30    1
    35    17    19    1
    36    17    31    1
    37    18    32    1
    38    19    22    1
    39    19    33    1
    40    20    34    1
    41    20    35    1
    42    20    36    1
    43    21    23    2
    44    21    37    1
    45    22    39    1
    46    22    40    1
    47    23    41    1
