@<TRIPOS>MOLECULE
IMPHY006298
 116 124 0 0 0
SMALL
GASTEIGER

@<TRIPOS>ATOM
      1 O           6.8102   -4.6227    0.0000 O.3     1  UNL1       -0.4570
      2 O           8.0777   -2.6680    0.0000 O.3     1  UNL1       -0.3733
      3 O           8.8208   -3.3371    0.0000 O.3     1  UNL1       -0.4658
      4 O           8.6130   -4.3152    0.0000 O.2     1  UNL1       -0.2474
      5 O           9.1574   -1.7535    0.0000 O.2     1  UNL1       -0.2790
      6 O           8.1801    1.8223    0.0000 O.3     1  UNL1       -0.4947
      7 O           8.0974   -5.7817    0.0000 O.2     1  UNL1       -0.2512
      8 O           6.5287    0.5093    0.0000 O.3     1  UNL1       -0.4670
      9 O           5.2439    0.5543    0.0000 O.2     1  UNL1       -0.2494
     10 O           9.1930    5.7695    0.0000 O.3     1  UNL1       -0.3873
     11 N           4.3838   -2.3940    0.0000 N.3     1  UNL1       -0.2939
     12 N           7.4632   -1.3934    0.0000 N.am    1  UNL1       -0.2662
     13 N           6.8864    5.0410    0.0000 N.3     1  UNL1       -0.2990
     14 N           4.6681    1.8859    0.0000 N.ar    1  UNL1       -0.3565
     15 C           5.9235   -1.8937    0.0000 C.3     1  UNL1        0.0374
     16 C           5.2980   -2.5883    0.0000 C.3     1  UNL1        0.0348
     17 C           5.5869   -3.4773    0.0000 C.3     1  UNL1        0.0453
     18 C           6.8378   -2.0880    0.0000 C.3     1  UNL1        0.0848
     19 C           7.1266   -2.9770    0.0000 C.3     1  UNL1        0.2200
     20 C           5.5384   -0.8581    0.0000 C.3     1  UNL1       -0.0271
     21 C           6.5012   -3.6716    0.0000 C.3     1  UNL1        0.1543
     22 C           6.2601   -0.3101    0.0000 C.ar    1  UNL1       -0.0158
     23 C           4.0949   -1.5050    0.0000 C.3     1  UNL1        0.0005
     24 C           5.8959   -4.4284    0.0000 C.3     1  UNL1       -0.0418
     25 C           4.9614   -4.1719    0.0000 C.2     1  UNL1       -0.0755
     26 C           7.1744   -0.5045    0.0000 C.ar    1  UNL1        0.0438
     27 C           3.7583   -3.0886    0.0000 C.3     1  UNL1        0.0175
     28 C           4.0472   -3.9776    0.0000 C.2     1  UNL1       -0.0733
     29 C           7.8698   -3.6462    0.0000 C.2     1  UNL1        0.3446
     30 C           5.9713    0.5788    0.0000 C.ar    1  UNL1       -0.0481
     31 C           5.2268   -5.1715    0.0000 C.3     1  UNL1       -0.0643
     32 C           7.7998    0.1902    0.0000 C.ar    1  UNL1        0.0021
     33 C           8.4143   -1.0844    0.0000 C.2     1  UNL1        0.2071
     34 C           6.5967    1.2735    0.0000 C.ar    1  UNL1        0.0172
     35 C           7.5110    1.0791    0.0000 C.ar    1  UNL1        0.1265
     36 C           6.2877    2.2245    0.0000 C.3     1  UNL1        0.1360
     37 C           7.1192   -5.5738    0.0000 C.2     1  UNL1        0.3043
     38 C           7.2388    2.5336    0.0000 C.3     1  UNL1       -0.0234
     39 C           5.3605    2.5991    0.0000 C.ar    1  UNL1        0.0418
     40 C           7.7687    3.3816    0.0000 C.3     1  UNL1       -0.0239
     41 C           5.9131    1.2974    0.0000 C.2     1  UNL1        0.3235
     42 C           6.4501   -6.3169    0.0000 C.3     1  UNL1        0.0332
     43 C           9.5640   -4.0063    0.0000 C.3     1  UNL1        0.0818
     44 C           8.6440    3.9029    0.0000 C.3     1  UNL1       -0.0188
     45 C           7.6295    4.3719    0.0000 C.3     1  UNL1        0.0020
     46 C           4.8910    3.4821    0.0000 C.ar    1  UNL1       -0.0165
     47 C           8.6631    4.9214    0.0000 C.3     1  UNL1        0.0788
     48 C           7.8080    5.4752    0.0000 C.3     1  UNL1        0.0278
     49 C           5.0990    4.4602    0.0000 C.3     1  UNL1       -0.0126
     50 C           5.8870    5.0759    0.0000 C.3     1  UNL1        0.0031
     51 C           3.9125    3.3069    0.0000 C.ar    1  UNL1        0.0032
     52 C           9.1583    1.6144    0.0000 C.3     1  UNL1        0.0788
     53 C           3.7750    2.3224    0.0000 C.ar    1  UNL1        0.0470
     54 C           9.6625    4.8865    0.0000 C.3     1  UNL1       -0.0256
     55 C           3.1059    3.9562    0.0000 C.ar    1  UNL1       -0.0523
     56 C           2.8214    1.9189    0.0000 C.ar    1  UNL1       -0.0378
     57 C          10.1924    5.7346    0.0000 C.3     1  UNL1       -0.0626
     58 C           7.6676    0.6694    0.0000 C.3     1  UNL1        0.0817
     59 C           2.1432    3.5749    0.0000 C.ar    1  UNL1       -0.0611
     60 C           2.0000    2.5494    0.0000 C.ar    1  UNL1       -0.0598
     61 H           5.0354   -1.7800    0.0000 H       1  UNL1        0.0482
     62 H           7.6692   -2.2648    0.0000 H       1  UNL1        0.0549
     63 H           6.1147   -0.6294    0.0000 H       1  UNL1        0.0287
     64 H           5.2972   -0.2869    0.0000 H       1  UNL1        0.0287
     65 H           7.1076   -3.8006    0.0000 H       1  UNL1        0.0779
     66 H           3.8617   -0.9306    0.0000 H       1  UNL1        0.0427
     67 H           3.5125   -1.7176    0.0000 H       1  UNL1        0.0427
     68 H           6.2776   -4.9169    0.0000 H       1  UNL1        0.0273
     69 H           6.4433   -4.1373    0.0000 H       1  UNL1        0.0273
     70 H           5.1530   -4.7616    0.0000 H       1  UNL1        0.0577
     71 H           3.3766   -2.6001    0.0000 H       1  UNL1        0.0470
     72 H           3.2109   -3.3797    0.0000 H       1  UNL1        0.0470
     73 H           3.6323   -4.4384    0.0000 H       1  UNL1        0.0582
     74 H           5.3648    0.7078    0.0000 H       1  UNL1        0.0625
     75 H           8.4925   -2.2072    0.0000 H       1  UNL1        0.2111
     76 H           4.7660   -4.7566    0.0000 H       1  UNL1        0.0230
     77 H           4.8119   -5.6323    0.0000 H       1  UNL1        0.0230
     78 H           5.6875   -5.5864    0.0000 H       1  UNL1        0.0230
     79 H           8.4063    0.0613    0.0000 H       1  UNL1        0.0673
     80 H           8.5432   -0.4779    0.0000 H       1  UNL1        0.1257
     81 H           7.2532    1.9137    0.0000 H       1  UNL1        0.0286
     82 H           7.8367    2.3696    0.0000 H       1  UNL1        0.0286
     83 H           8.6001    3.2049    0.0000 H       1  UNL1        0.0314
     84 H           5.9894   -5.9020    0.0000 H       1  UNL1        0.0342
     85 H           6.0352   -6.7776    0.0000 H       1  UNL1        0.0342
     86 H           6.9108   -6.7318    0.0000 H       1  UNL1        0.0342
     87 H           9.1491   -4.4670    0.0000 H       1  UNL1        0.0661
     88 H          10.0247   -4.4211    0.0000 H       1  UNL1        0.0661
     89 H           9.9788   -3.5455    0.0000 H       1  UNL1        0.0661
     90 H           8.8576    3.3208    0.0000 H       1  UNL1        0.0296
     91 H           9.2554    4.0056    0.0000 H       1  UNL1        0.0296
     92 H           8.2424    4.2784    0.0000 H       1  UNL1        0.0429
     93 H           7.8948    4.9322    0.0000 H       1  UNL1        0.0429
     94 H           4.3572    1.3495    0.0000 H       1  UNL1        0.1656
     95 H           8.2351    5.9246    0.0000 H       1  UNL1        0.0455
     96 H           7.4449    5.9778    0.0000 H       1  UNL1        0.0455
     97 H           4.8734    5.0378    0.0000 H       1  UNL1        0.0326
     98 H           4.4810    4.4098    0.0000 H       1  UNL1        0.0326
     99 H           6.0854    5.6633    0.0000 H       1  UNL1        0.0430
    100 H           5.3812    5.4345    0.0000 H       1  UNL1        0.0430
    101 H           9.0294    1.0079    0.0000 H       1  UNL1        0.0660
    102 H           9.7647    1.4855    0.0000 H       1  UNL1        0.0660
    103 H           9.2872    2.2208    0.0000 H       1  UNL1        0.0660
    104 H           9.5336    4.2801    0.0000 H       1  UNL1        0.0291
    105 H          10.2373    4.6543    0.0000 H       1  UNL1        0.0291
    106 H           8.9019    6.3169    0.0000 H       1  UNL1        0.2102
    107 H           3.1988    4.5692    0.0000 H       1  UNL1        0.0624
    108 H           2.7427    1.3040    0.0000 H       1  UNL1        0.0638
    109 H          10.7182    5.4060    0.0000 H       1  UNL1        0.0231
    110 H          10.5209    6.2604    0.0000 H       1  UNL1        0.0231
    111 H           9.6666    6.0631    0.0000 H       1  UNL1        0.0231
    112 H           7.7538    0.0554    0.0000 H       1  UNL1        0.0661
    113 H           8.2815    0.7557    0.0000 H       1  UNL1        0.0661
    114 H           7.5813    1.2834    0.0000 H       1  UNL1        0.0661
    115 H           1.6558    3.9581    0.0000 H       1  UNL1        0.0618
    116 H           1.4262    2.3144    0.0000 H       1  UNL1        0.0618
@<TRIPOS>BOND
     1    21     1    1
     2     1    37    1
     3    19     2    1
     4     2    75    1
     5     3    29    1
     6     3    43    1
     7     4    29    2
     8     5    33    2
     9     6    35    1
    10     6    52    1
    11     7    37    2
    12     8    41    1
    13     8    58    1
    14     9    41    2
    15    47    10    1
    16    10   106    1
    17    11    16    1
    18    11    23    1
    19    11    27    1
    20    12    18    1
    21    12    26    1
    22    12    33   am
    23    13    45    1
    24    13    48    1
    25    13    50    1
    26    14    39   ar
    27    14    53   ar
    28    14    94    1
    29    15    16    1
    30    15    18    1
    31    15    20    1
    32    15    22    1
    33    16    17    1
    34    16    61    1
    35    17    21    1
    36    17    24    1
    37    17    25    1
    38    18    19    1
    39    18    62    1
    40    19    21    1
    41    19    29    1
    42    20    23    1
    43    20    63    1
    44    20    64    1
    45    21    65    1
    46    22    26   ar
    47    22    30   ar
    48    23    66    1
    49    23    67    1
    50    24    31    1
    51    24    68    1
    52    24    69    1
    53    25    28    2
    54    25    70    1
    55    26    32   ar
    56    27    28    1
    57    27    71    1
    58    27    72    1
    59    28    73    1
    60    30    34   ar
    61    30    74    1
    62    31    76    1
    63    31    77    1
    64    31    78    1
    65    32    35   ar
    66    32    79    1
    67    33    80    1
    68    34    35   ar
    69    34    36    1
    70    36    38    1
    71    36    39    1
    72    36    41    1
    73    37    42    1
    74    38    40    1
    75    38    81    1
    76    38    82    1
    77    39    46   ar
    78    40    44    1
    79    40    45    1
    80    40    83    1
    81    42    84    1
    82    42    85    1
    83    42    86    1
    84    43    87    1
    85    43    88    1
    86    43    89    1
    87    44    47    1
    88    44    90    1
    89    44    91    1
    90    45    92    1
    91    45    93    1
    92    46    49    1
    93    46    51   ar
    94    47    48    1
    95    47    54    1
    96    48    95    1
    97    48    96    1
    98    49    50    1
    99    49    97    1
   100    49    98    1
   101    50    99    1
   102    50   100    1
   103    51    53   ar
   104    51    55   ar
   105    52   101    1
   106    52   102    1
   107    52   103    1
   108    53    56   ar
   109    54    57    1
   110    54   104    1
   111    54   105    1
   112    55    59   ar
   113    55   107    1
   114    56    60   ar
   115    56   108    1
   116    57   109    1
   117    57   110    1
   118    57   111    1
   119    58   112    1
   120    58   113    1
   121    58   114    1
   122    59    60   ar
   123    59   115    1
   124    60   116    1
