@<TRIPOS>MOLECULE
IMPHY008504
 34 35 0 0 0
SMALL
GASTEIGER

@<TRIPOS>ATOM
      1 O           6.3301   -1.7500    0.0000 O.3     1  UNL1       -0.4913
      2 O           2.8660   -1.7500    0.0000 O.3     1  UNL1       -0.4913
      3 O           4.5981   -2.7500    0.0000 O.3     1  UNL1       -0.4885
      4 C           4.5981    0.2500    0.0000 C.ar    1  UNL1       -0.0107
      5 C           4.5981    1.2500    0.0000 C.ar    1  UNL1       -0.0177
      6 C           3.7320   -0.2500    0.0000 C.ar    1  UNL1       -0.0083
      7 C           5.4641   -0.2500    0.0000 C.ar    1  UNL1       -0.0083
      8 C           5.4641   -1.2500    0.0000 C.ar    1  UNL1        0.1657
      9 C           3.7320   -1.2500    0.0000 C.ar    1  UNL1        0.1657
     10 C           4.5981   -1.7500    0.0000 C.ar    1  UNL1        0.2035
     11 C           5.4641    1.7500    0.0000 C.ar    1  UNL1       -0.0540
     12 C           3.7320    1.7500    0.0000 C.ar    1  UNL1       -0.0540
     13 C           5.4641    2.7500    0.0000 C.ar    1  UNL1       -0.0612
     14 C           3.7320    2.7500    0.0000 C.ar    1  UNL1       -0.0612
     15 C           4.5981    3.2500    0.0000 C.ar    1  UNL1       -0.0617
     16 C           7.1962   -1.2500    0.0000 C.3     1  UNL1        0.0790
     17 C           2.0000   -1.2500    0.0000 C.3     1  UNL1        0.0790
     18 C           3.7320   -3.2500    0.0000 C.3     1  UNL1        0.0791
     19 H           3.1951    0.0600    0.0000 H       1  UNL1        0.0661
     20 H           6.0010    0.0600    0.0000 H       1  UNL1        0.0661
     21 H           6.0010    1.4400    0.0000 H       1  UNL1        0.0624
     22 H           3.1951    1.4400    0.0000 H       1  UNL1        0.0624
     23 H           6.0010    3.0600    0.0000 H       1  UNL1        0.0618
     24 H           3.1951    3.0600    0.0000 H       1  UNL1        0.0618
     25 H           4.5981    3.8700    0.0000 H       1  UNL1        0.0618
     26 H           3.4220   -2.7131    0.0000 H       1  UNL1        0.0660
     27 H           3.1951   -3.5600    0.0000 H       1  UNL1        0.0660
     28 H           4.0420   -3.7869    0.0000 H       1  UNL1        0.0660
     29 H           7.5062   -1.7869    0.0000 H       1  UNL1        0.0660
     30 H           7.7331   -0.9400    0.0000 H       1  UNL1        0.0660
     31 H           6.8862   -0.7131    0.0000 H       1  UNL1        0.0660
     32 H           2.3100   -0.7131    0.0000 H       1  UNL1        0.0660
     33 H           1.4631   -0.9400    0.0000 H       1  UNL1        0.0660
     34 H           1.6900   -1.7869    0.0000 H       1  UNL1        0.0660
@<TRIPOS>BOND
     1     1     8    1
     2     1    16    1
     3     2     9    1
     4     2    17    1
     5     3    10    1
     6     3    18    1
     7     4     5    1
     8     4     6   ar
     9     4     7   ar
    10     5    11   ar
    11     5    12   ar
    12     6     9   ar
    13     6    19    1
    14     7     8   ar
    15     7    20    1
    16     8    10   ar
    17     9    10   ar
    18    11    13   ar
    19    11    21    1
    20    12    14   ar
    21    12    22    1
    22    13    15   ar
    23    13    23    1
    24    14    15   ar
    25    14    24    1
    26    15    25    1
    27    16    29    1
    28    16    30    1
    29    16    31    1
    30    17    32    1
    31    17    33    1
    32    17    34    1
    33    18    26    1
    34    18    27    1
    35    18    28    1
