@<TRIPOS>MOLECULE
IMPHY009759
 32 33 0 0 0
SMALL
GASTEIGER

@<TRIPOS>ATOM
      1 O           4.6420   -1.1421    0.0000 O.3     1  UNL1       -0.4571
      2 O           6.3730   -1.2026    0.0000 O.2     1  UNL1       -0.2511
      3 C           2.0570    0.7317    0.0000 C.3     1  UNL1       -0.0219
      4 C           3.4559    0.7229    0.0000 C.3     1  UNL1        0.0061
      5 C           3.1971    1.6888    0.0000 C.3     1  UNL1       -0.0141
      6 C           3.9337    2.6714    0.0000 C.3     1  UNL1       -0.0390
      7 C           4.6769   -0.1427    0.0000 C.3     1  UNL1        0.1248
      8 C           5.2303    1.3777    0.0000 C.2     1  UNL1       -0.0695
      9 C           1.1910    1.2317    0.0000 C.3     1  UNL1       -0.0589
     10 C           1.5570   -0.1343    0.0000 C.3     1  UNL1       -0.0589
     11 C           5.5060    0.4164    0.0000 C.2     1  UNL1       -0.0444
     12 C           5.8460    2.1657    0.0000 C.3     1  UNL1       -0.0434
     13 C           5.4901   -1.6721    0.0000 C.2     1  UNL1        0.3045
     14 C           5.4552   -2.6714    0.0000 C.3     1  UNL1        0.0333
     15 H           3.6759   -0.0981    0.0000 H       1  UNL1        0.0345
     16 H           2.9771    2.5099    0.0000 H       1  UNL1        0.0351
     17 H           3.6159    3.2038    0.0000 H       1  UNL1        0.0275
     18 H           4.5468    2.7634    0.0000 H       1  UNL1        0.0275
     19 H           5.2192   -0.4433    0.0000 H       1  UNL1        0.0782
     20 H           0.8810    0.6948    0.0000 H       1  UNL1        0.0235
     21 H           2.0939   -0.4443    0.0000 H       1  UNL1        0.0235
     22 H           1.2470   -0.6712    0.0000 H       1  UNL1        0.0235
     23 H           1.0200    0.1757    0.0000 H       1  UNL1        0.0235
     24 H           0.6540    1.5417    0.0000 H       1  UNL1        0.0235
     25 H           1.5010    1.7687    0.0000 H       1  UNL1        0.0235
     26 H           6.0886    0.2044    0.0000 H       1  UNL1        0.0608
     27 H           5.3574    2.5474    0.0000 H       1  UNL1        0.0274
     28 H           6.2277    2.6543    0.0000 H       1  UNL1        0.0274
     29 H           6.3346    1.7840    0.0000 H       1  UNL1        0.0274
     30 H           6.0748   -2.6931    0.0000 H       1  UNL1        0.0342
     31 H           5.4336   -3.2911    0.0000 H       1  UNL1        0.0342
     32 H           4.8356   -2.6498    0.0000 H       1  UNL1        0.0342
@<TRIPOS>BOND
     1     7     1    1
     2     1    13    1
     3     2    13    2
     4     3     4    1
     5     3     5    1
     6     3     9    1
     7     3    10    1
     8     4     6    1
     9     4     7    1
    10     4    15    1
    11     5     6    1
    12     5     8    1
    13     5    16    1
    14     6    17    1
    15     6    18    1
    16     7    11    1
    17     7    19    1
    18     8    11    2
    19     8    12    1
    20     9    20    1
    21     9    24    1
    22     9    25    1
    23    10    21    1
    24    10    22    1
    25    10    23    1
    26    11    26    1
    27    12    27    1
    28    12    28    1
    29    12    29    1
    30    13    14    1
    31    14    30    1
    32    14    31    1
    33    14    32    1
