@<TRIPOS>MOLECULE
IMPHY001859
 53 57 0 0 0
SMALL
GASTEIGER

@<TRIPOS>ATOM
      1 O           9.0462   -1.2127    0.0000 O.3     1  UNL1       -0.4914
      2 O           2.8641    2.3566    0.0000 O.3     1  UNL1       -0.4914
      3 O           9.0462    0.8356    0.0000 O.3     1  UNL1       -0.4914
      4 O           4.6380    3.3807    0.0000 O.3     1  UNL1       -0.4914
      5 N           4.6341   -2.7578    0.0000 N.ar    1  UNL1       -0.2006
      6 C           3.7320   -2.2370    0.0000 C.ar    1  UNL1        0.1847
      7 C           4.4162   -3.7700    0.0000 C.3     1  UNL1        0.1512
      8 C           2.9643   -2.9318    0.0000 C.3     1  UNL1        0.0382
      9 C           3.3863   -3.8774    0.0000 C.3     1  UNL1        0.0164
     10 C           5.5161   -1.1885    0.0000 C.ar    1  UNL1        0.0542
     11 C           4.6501   -0.6885    0.0000 C.ar    1  UNL1        0.0021
     12 C           5.5322   -2.2300    0.0000 C.ar    1  UNL1        0.1798
     13 C           3.7401   -1.1954    0.0000 C.ar    1  UNL1        0.0137
     14 C           6.3821   -0.6885    0.0000 C.ar    1  UNL1       -0.0002
     15 C           4.6501    0.3115    0.0000 C.ar    1  UNL1       -0.0055
     16 C           6.3821    0.3115    0.0000 C.ar    1  UNL1       -0.0056
     17 C           5.5161    0.8115    0.0000 C.ar    1  UNL1       -0.0058
     18 C           7.2761   -1.2232    0.0000 C.ar    1  UNL1       -0.0078
     19 C           3.7401    0.8183    0.0000 C.ar    1  UNL1       -0.0080
     20 C           7.2761    0.8461    0.0000 C.ar    1  UNL1       -0.0080
     21 C           5.5322    1.8530    0.0000 C.ar    1  UNL1       -0.0080
     22 C           8.1821   -0.7093    0.0000 C.ar    1  UNL1        0.1621
     23 C           3.7320    1.8599    0.0000 C.ar    1  UNL1        0.1621
     24 C           8.1821    0.3323    0.0000 C.ar    1  UNL1        0.1621
     25 C           4.6341    2.3807    0.0000 C.ar    1  UNL1        0.1621
     26 C           9.0424   -2.2127    0.0000 C.3     1  UNL1        0.0790
     27 C           2.0000    1.8532    0.0000 C.3     1  UNL1        0.0790
     28 C           9.0424    1.8356    0.0000 C.3     1  UNL1        0.0790
     29 C           5.5059    3.8774    0.0000 C.3     1  UNL1        0.0790
     30 H           4.4153   -4.3900    0.0000 H       1  UNL1        0.1030
     31 H           5.0327   -3.8361    0.0000 H       1  UNL1        0.1030
     32 H           2.5989   -2.4310    0.0000 H       1  UNL1        0.0374
     33 H           2.4278   -3.2426    0.0000 H       1  UNL1        0.0374
     34 H           2.7967   -4.0692    0.0000 H       1  UNL1        0.0332
     35 H           3.5150   -4.4839    0.0000 H       1  UNL1        0.0332
     36 H           6.0726   -2.5338    0.0000 H       1  UNL1        0.1383
     37 H           3.2068   -0.8792    0.0000 H       1  UNL1        0.0686
     38 H           7.2689   -1.8431    0.0000 H       1  UNL1        0.0662
     39 H           3.2068    0.5021    0.0000 H       1  UNL1        0.0662
     40 H           7.2689    1.4661    0.0000 H       1  UNL1        0.0662
     41 H           6.0726    2.1568    0.0000 H       1  UNL1        0.0662
     42 H           8.4224   -2.2103    0.0000 H       1  UNL1        0.0660
     43 H           9.0400   -2.8326    0.0000 H       1  UNL1        0.0660
     44 H           9.6624   -2.2151    0.0000 H       1  UNL1        0.0660
     45 H           1.6879    2.3890    0.0000 H       1  UNL1        0.0660
     46 H           1.4643    1.5412    0.0000 H       1  UNL1        0.0660
     47 H           2.3121    1.3175    0.0000 H       1  UNL1        0.0660
     48 H           9.6624    1.8380    0.0000 H       1  UNL1        0.0660
     49 H           9.0400    2.4556    0.0000 H       1  UNL1        0.0660
     50 H           8.4224    1.8332    0.0000 H       1  UNL1        0.0660
     51 H           5.8139    3.3393    0.0000 H       1  UNL1        0.0660
     52 H           6.0440    4.1853    0.0000 H       1  UNL1        0.0660
     53 H           5.1980    4.4155    0.0000 H       1  UNL1        0.0660
@<TRIPOS>UNITY_ATOM_ATTR
5 1
charge 1
@<TRIPOS>BOND
     1     1    22    1
     2     1    26    1
     3     2    23    1
     4     2    27    1
     5     3    24    1
     6     3    28    1
     7     4    25    1
     8     4    29    1
     9     5     6   ar
    10     5     7    1
    11     5    12   ar
    12     6     8    1
    13     6    13   ar
    14     7     9    1
    15     7    30    1
    16     7    31    1
    17     8     9    1
    18     8    32    1
    19     8    33    1
    20     9    34    1
    21     9    35    1
    22    10    11   ar
    23    10    12   ar
    24    10    14   ar
    25    11    13   ar
    26    11    15   ar
    27    12    36    1
    28    13    37    1
    29    14    16   ar
    30    14    18   ar
    31    15    17   ar
    32    15    19   ar
    33    16    17   ar
    34    16    20   ar
    35    17    21   ar
    36    18    22   ar
    37    18    38    1
    38    19    23   ar
    39    19    39    1
    40    20    24   ar
    41    20    40    1
    42    21    25   ar
    43    21    41    1
    44    22    24   ar
    45    23    25   ar
    46    26    42    1
    47    26    43    1
    48    26    44    1
    49    27    45    1
    50    27    46    1
    51    27    47    1
    52    28    48    1
    53    28    49    1
    54    28    50    1
    55    29    51    1
    56    29    52    1
    57    29    53    1
