@<TRIPOS>MOLECULE
IMPHY000579
 46 48 0 0 0
SMALL
GASTEIGER

@<TRIPOS>ATOM
      1 O          10.6882   -1.3797    0.0000 O.3     1  UNL1       -0.4815
      2 O           8.9282    1.6550    0.0000 O.3     1  UNL1       -0.5053
      3 O           7.1962    1.6550    0.0000 O.2     1  UNL1       -0.2872
      4 O           2.0000    0.6550    0.0000 O.3     1  UNL1       -0.4914
      5 O           2.0000   -1.3450    0.0000 O.3     1  UNL1       -0.5033
      6 C          11.5942   -0.8658    0.0000 C.3     1  UNL1        0.1235
      7 C          11.5942    0.1758    0.0000 C.2     1  UNL1       -0.0408
      8 C           9.7942    0.1550    0.0000 C.ar    1  UNL1        0.0586
      9 C           9.7942   -0.8450    0.0000 C.ar    1  UNL1        0.1324
     10 C          12.5942   -0.8697    0.0000 C.3     1  UNL1       -0.0215
     11 C          12.0909   -1.7338    0.0000 C.3     1  UNL1       -0.0215
     12 C          10.6882    0.6897    0.0000 C.2     1  UNL1       -0.0478
     13 C           8.9282    0.6550    0.0000 C.ar    1  UNL1        0.1382
     14 C           8.9282   -1.3450    0.0000 C.ar    1  UNL1       -0.0184
     15 C           8.0622    0.1550    0.0000 C.ar    1  UNL1        0.0638
     16 C           8.0622   -0.8450    0.0000 C.ar    1  UNL1       -0.0439
     17 C           7.1962    0.6550    0.0000 C.2     1  UNL1        0.1896
     18 C           6.3301    0.1550    0.0000 C.2     1  UNL1       -0.0137
     19 C           4.5981    0.1550    0.0000 C.ar    1  UNL1       -0.0212
     20 C           5.4641    0.6550    0.0000 C.2     1  UNL1       -0.0508
     21 C           3.7320    0.6550    0.0000 C.ar    1  UNL1       -0.0092
     22 C           4.5981   -0.8450    0.0000 C.ar    1  UNL1       -0.0509
     23 C           2.8660    0.1550    0.0000 C.ar    1  UNL1        0.1618
     24 C           2.8660   -0.8450    0.0000 C.ar    1  UNL1        0.1585
     25 C           3.7320   -1.3450    0.0000 C.ar    1  UNL1       -0.0160
     26 C           2.0000    1.6550    0.0000 C.3     1  UNL1        0.0790
     27 H          12.1300    0.4879    0.0000 H       1  UNL1        0.0611
     28 H          12.5918   -1.4897    0.0000 H       1  UNL1        0.0271
     29 H          13.2142   -0.8721    0.0000 H       1  UNL1        0.0271
     30 H          12.5966   -0.2497    0.0000 H       1  UNL1        0.0271
     31 H          11.5528   -2.0417    0.0000 H       1  UNL1        0.0271
     32 H          12.3988   -2.2719    0.0000 H       1  UNL1        0.0271
     33 H          12.6290   -1.4258    0.0000 H       1  UNL1        0.0271
     34 H          10.6810    1.3096    0.0000 H       1  UNL1        0.0624
     35 H           8.9282   -1.9650    0.0000 H       1  UNL1        0.0654
     36 H           7.5252   -1.1550    0.0000 H       1  UNL1        0.0627
     37 H           9.4651    1.9650    0.0000 H       1  UNL1        0.2922
     38 H           6.3301   -0.4650    0.0000 H       1  UNL1        0.0656
     39 H           5.4641    1.2750    0.0000 H       1  UNL1        0.0625
     40 H           3.7320    1.2750    0.0000 H       1  UNL1        0.0661
     41 H           5.1350   -1.1550    0.0000 H       1  UNL1        0.0625
     42 H           3.7320   -1.9650    0.0000 H       1  UNL1        0.0655
     43 H           2.0000   -1.9650    0.0000 H       1  UNL1        0.2923
     44 H           2.6200    1.6550    0.0000 H       1  UNL1        0.0660
     45 H           2.0000    2.2750    0.0000 H       1  UNL1        0.0660
     46 H           1.3800    1.6550    0.0000 H       1  UNL1        0.0660
@<TRIPOS>BOND
     1     1     6    1
     2     1     9    1
     3     2    13    1
     4     2    37    1
     5     3    17    2
     6     4    23    1
     7     4    26    1
     8     5    24    1
     9     5    43    1
    10     6     7    1
    11     6    10    1
    12     6    11    1
    13     7    12    2
    14     7    27    1
    15     8     9   ar
    16     8    12    1
    17     8    13   ar
    18     9    14   ar
    19    10    28    1
    20    10    29    1
    21    10    30    1
    22    11    31    1
    23    11    32    1
    24    11    33    1
    25    12    34    1
    26    13    15   ar
    27    14    16   ar
    28    14    35    1
    29    15    16   ar
    30    15    17    1
    31    16    36    1
    32    17    18    1
    33    18    20    2
    34    18    38    1
    35    19    20    1
    36    19    21   ar
    37    19    22   ar
    38    20    39    1
    39    21    23   ar
    40    21    40    1
    41    22    25   ar
    42    22    41    1
    43    23    24   ar
    44    24    25   ar
    45    25    42    1
    46    26    44    1
    47    26    45    1
    48    26    46    1
