@<TRIPOS>MOLECULE
IMPHY000514
 24 26 0 0 0
SMALL
GASTEIGER

@<TRIPOS>ATOM
      1 C        2503.1800 2488.3900    0.0000 C.3     1  UNL1        0.0721
      2 C        2503.1800 2448.3900    0.0000 C.ar    1  UNL1        0.0635
      3 C        2468.6400 2428.2400    0.0000 C.ar    1  UNL1        0.0173
      4 C        2468.6400 2387.9400    0.0000 C.ar    1  UNL1        0.0059
      5 C        2434.0900 2367.7900    0.0000 C.ar    1  UNL1        0.0403
      6 C        2399.5500 2387.9400    0.0000 C.ar    1  UNL1        0.1774
      7 C        2399.5500 2428.2400    0.0000 C.ar    1  UNL1        0.2293
      8 C        2434.0900 2448.3900    0.0000 C.ar    1  UNL1        0.0464
      9 O        2364.9100 2448.1900    0.0000 O.3     1  UNL1       -0.2833
     10 O        2364.9100 2367.8900    0.0000 O.3     1  UNL1       -0.4682
     11 C        2323.5200 2391.8100    0.0000 C.3     1  UNL1        0.2526
     12 C        2503.1800 2367.7900    0.0000 C.ar    1  UNL1        0.0208
     13 C        2537.7200 2387.9400    0.0000 C.ar    1  UNL1        0.0985
     14 N        2537.7200 2428.2400    0.0000 N.ar    1  UNL1       -0.2478
     15 C        2537.8200 2508.3400    0.0000 C.ar    1  UNL1       -0.0130
     16 C        2537.8200 2548.3400    0.0000 C.ar    1  UNL1        0.0362
     17 C        2572.5600 2568.3900    0.0000 C.ar    1  UNL1        0.1721
     18 O        2572.5600 2608.3900    0.0000 O.3     1  UNL1       -0.4684
     19 C        2531.1700 2632.2100    0.0000 C.3     1  UNL1        0.2526
     20 C        2607.1000 2548.3400    0.0000 C.ar    1  UNL1        0.1724
     21 C        2607.1000 2508.3400    0.0000 C.ar    1  UNL1        0.0397
     22 C        2572.5600 2488.3900    0.0000 C.ar    1  UNL1       -0.0006
     23 O        2641.8400 2568.3900    0.0000 O.3     1  UNL1       -0.4684
     24 C        2676.4800 2548.3400    0.0000 C.3     1  UNL1        0.2526
@<TRIPOS>BOND
     1     1     2    1
     2     1    15    1
     3     2     3   ar
     4     2    14   ar
     5     3     4   ar
     6     3     8   ar
     7     4     5   ar
     8     4    12   ar
     9     5     6   ar
    10     6    10    1
    11     7     6   ar
    12     7     9    1
    13     8     7   ar
    14    10    11    1
    15    13    12   ar
    16    14    13   ar
    17    15    16   ar
    18    15    22   ar
    19    16    17   ar
    20    17    18    1
    21    17    20   ar
    22    18    19    1
    23    20    23    1
    24    21    20   ar
    25    22    21   ar
    26    23    24    1
