@<TRIPOS>MOLECULE
IMPHY002844
 141 148 0 0 0
SMALL
GASTEIGER

@<TRIPOS>ATOM
      1 O          11.3261    4.6425    0.0000 O.3     1  UNL1       -0.3448
      2 O           8.8741    3.9791    0.0000 O.3     1  UNL1       -0.3944
      3 O           9.4651   -4.6160    0.0000 O.3     1  UNL1       -0.4318
      4 O           8.5991   -3.1160    0.0000 O.2     1  UNL1       -0.2501
      5 O          13.0581    4.6225    0.0000 O.3     1  UNL1       -0.3461
      6 O           7.7331   -4.6160    0.0000 O.3     1  UNL1       -0.3312
      7 O          11.3493    6.6424    0.0000 O.3     1  UNL1       -0.3841
      8 O          13.0928    7.6223    0.0000 O.3     1  UNL1       -0.3864
      9 O           9.4651   -6.6160    0.0000 O.3     1  UNL1       -0.3829
     10 O          14.8131    6.6023    0.0000 O.3     1  UNL1       -0.3869
     11 O           7.7331   -7.6160    0.0000 O.3     1  UNL1       -0.3864
     12 O           6.0010   -6.6160    0.0000 O.3     1  UNL1       -0.3865
     13 O           6.0010   -3.6160    0.0000 O.3     1  UNL1       -0.3460
     14 O           5.1350   -2.1160    0.0000 O.3     1  UNL1       -0.3405
     15 O           4.2690   -4.6160    0.0000 O.3     1  UNL1       -0.3841
     16 O           2.5369   -3.6160    0.0000 O.3     1  UNL1       -0.3864
     17 O           2.5369   -1.6160    0.0000 O.3     1  UNL1       -0.3865
     18 O           3.4030   -0.1160    0.0000 O.3     1  UNL1       -0.3924
     19 C          10.3708   -0.0470    0.0000 C.3     1  UNL1       -0.0194
     20 C          11.2406    0.4463    0.0000 C.3     1  UNL1       -0.0257
     21 C          11.2647    1.4877    0.0000 C.3     1  UNL1       -0.0249
     22 C          10.3631   -1.0470    0.0000 C.3     1  UNL1       -0.0051
     23 C          10.3708    2.0223    0.0000 C.3     1  UNL1       -0.0255
     24 C           9.4647    0.4669    0.0000 C.3     1  UNL1       -0.0463
     25 C          10.3708    3.1073    0.0000 C.3     1  UNL1        0.0206
     26 C           9.4647    1.5085    0.0000 C.3     1  UNL1       -0.0485
     27 C          11.2252   -1.5536    0.0000 C.2     1  UNL1       -0.0629
     28 C          12.1028   -0.0603    0.0000 C.3     1  UNL1       -0.0306
     29 C          12.2206    2.0009    0.0000 C.3     1  UNL1       -0.0447
     30 C          11.2332   -2.5952    0.0000 C.3     1  UNL1       -0.0031
     31 C           9.4492   -1.5468    0.0000 C.3     1  UNL1       -0.0424
     32 C          10.3312   -3.1160    0.0000 C.3     1  UNL1        0.0744
     33 C           9.3846   -0.2130    0.0000 C.3     1  UNL1       -0.0585
     34 C          11.3146    3.6426    0.0000 C.3     1  UNL1        0.0695
     35 C           9.4331   -2.5883    0.0000 C.3     1  UNL1       -0.0359
     36 C          12.1229    0.9744    0.0000 C.3     1  UNL1       -0.0590
     37 C          12.2457    3.0856    0.0000 C.3     1  UNL1       -0.0254
     38 C          12.0951   -1.0603    0.0000 C.2     1  UNL1       -0.0836
     39 C           9.3796   -0.8657    0.0000 C.3     1  UNL1       -0.0553
     40 C          12.1811   -3.1232    0.0000 C.3     1  UNL1       -0.0403
     41 C          10.3144   -4.2009    0.0000 C.3     1  UNL1       -0.0362
     42 C          12.1895   -4.2081    0.0000 C.3     1  UNL1       -0.0343
     43 C           9.8741    3.9753    0.0000 C.3     1  UNL1        0.0522
     44 C           9.3708    3.1112    0.0000 C.3     1  UNL1       -0.0548
     45 C          11.2499   -4.7506    0.0000 C.3     1  UNL1       -0.0468
     46 C           9.4651   -3.6160    0.0000 C.2     1  UNL1        0.3161
     47 C          13.1895   -4.2043    0.0000 C.3     1  UNL1       -0.0598
     48 C          12.6928   -5.0722    0.0000 C.3     1  UNL1       -0.0598
     49 C          12.1979    5.1325    0.0000 C.3     1  UNL1        0.1878
     50 C          12.2094    6.1324    0.0000 C.3     1  UNL1        0.1341
     51 C           8.5991   -5.1160    0.0000 C.3     1  UNL1        0.2337
     52 C          13.0812    6.6223    0.0000 C.3     1  UNL1        0.1137
     53 C          13.9298    5.1124    0.0000 C.3     1  UNL1        0.0792
     54 C           8.5991   -6.1160    0.0000 C.3     1  UNL1        0.1455
     55 C          13.9414    6.1124    0.0000 C.3     1  UNL1        0.1069
     56 C           7.7331   -6.6160    0.0000 C.3     1  UNL1        0.1152
     57 C           6.8671   -5.1160    0.0000 C.3     1  UNL1        0.1144
     58 C           6.8671   -6.1160    0.0000 C.3     1  UNL1        0.1120
     59 C           6.0010   -4.6160    0.0000 C.3     1  UNL1        0.0796
     60 C           5.1350   -3.1160    0.0000 C.3     1  UNL1        0.1880
     61 C           4.2690   -3.6160    0.0000 C.3     1  UNL1        0.1341
     62 C           3.4030   -3.1160    0.0000 C.3     1  UNL1        0.1141
     63 C           4.2690   -1.6160    0.0000 C.3     1  UNL1        0.1130
     64 C           3.4030   -2.1160    0.0000 C.3     1  UNL1        0.1119
     65 C           4.2690   -0.6160    0.0000 C.3     1  UNL1        0.0730
     66 H          11.9832    0.8599    0.0000 H       1  UNL1        0.0315
     67 H           9.6363    2.4502    0.0000 H       1  UNL1        0.0313
     68 H           8.8539    0.5729    0.0000 H       1  UNL1        0.0271
     69 H           9.2556   -0.1168    0.0000 H       1  UNL1        0.0271
     70 H           9.2556    2.0922    0.0000 H       1  UNL1        0.0268
     71 H           8.8539    1.4024    0.0000 H       1  UNL1        0.0268
     72 H          12.7125   -0.1727    0.0000 H       1  UNL1        0.0310
     73 H          12.3193    0.5206    0.0000 H       1  UNL1        0.0310
     74 H          12.4161    1.4126    0.0000 H       1  UNL1        0.0271
     75 H          12.8338    2.0929    0.0000 H       1  UNL1        0.0271
     76 H          11.9644   -2.1617    0.0000 H       1  UNL1        0.0357
     77 H           9.2492   -0.9599    0.0000 H       1  UNL1        0.0274
     78 H           8.8368   -1.6434    0.0000 H       1  UNL1        0.0274
     79 H           9.2817    0.3984    0.0000 H       1  UNL1        0.0235
     80 H           8.7733   -0.3159    0.0000 H       1  UNL1        0.0235
     81 H           9.4876   -0.8244    0.0000 H       1  UNL1        0.0235
     82 H          11.8556    3.9453    0.0000 H       1  UNL1        0.0603
     83 H           8.8240   -2.4728    0.0000 H       1  UNL1        0.0276
     84 H           9.2151   -3.1687    0.0000 H       1  UNL1        0.0276
     85 H          11.8047    0.4423    0.0000 H       1  UNL1        0.0235
     86 H          12.6550    0.6561    0.0000 H       1  UNL1        0.0235
     87 H          12.4412    1.5065    0.0000 H       1  UNL1        0.0235
     88 H          12.8540    2.9654    0.0000 H       1  UNL1        0.0290
     89 H          12.4682    3.6643    0.0000 H       1  UNL1        0.0290
     90 H          12.6296   -1.3744    0.0000 H       1  UNL1        0.0572
     91 H           9.4920   -0.2560    0.0000 H       1  UNL1        0.0238
     92 H           8.7699   -0.7534    0.0000 H       1  UNL1        0.0238
     93 H           9.2673   -1.4755    0.0000 H       1  UNL1        0.0238
     94 H          12.7928   -3.2245    0.0000 H       1  UNL1        0.0276
     95 H          12.3857   -2.5379    0.0000 H       1  UNL1        0.0276
     96 H           9.7053   -4.0854    0.0000 H       1  UNL1        0.0276
     97 H          10.0964   -4.7813    0.0000 H       1  UNL1        0.0276
     98 H          10.4575    4.1851    0.0000 H       1  UNL1        0.0563
     99 H           9.7688    4.5863    0.0000 H       1  UNL1        0.0563
    100 H           9.3732    3.7312    0.0000 H       1  UNL1        0.0237
    101 H           8.7508    3.1136    0.0000 H       1  UNL1        0.0237
    102 H           9.3684    2.4912    0.0000 H       1  UNL1        0.0237
    103 H          10.8489   -5.2235    0.0000 H       1  UNL1        0.0271
    104 H          11.6472   -5.2266    0.0000 H       1  UNL1        0.0271
    105 H          13.1919   -4.8243    0.0000 H       1  UNL1        0.0235
    106 H          13.8095   -4.2019    0.0000 H       1  UNL1        0.0235
    107 H          13.1871   -3.5843    0.0000 H       1  UNL1        0.0235
    108 H          12.1571   -5.3843    0.0000 H       1  UNL1        0.0235
    109 H          13.0049   -5.6080    0.0000 H       1  UNL1        0.0235
    110 H          13.2286   -4.7602    0.0000 H       1  UNL1        0.0235
    111 H          12.1907    4.5125    0.0000 H       1  UNL1        0.0937
    112 H           8.5662    4.5172    0.0000 H       1  UNL1        0.2094
    113 H          12.2166    6.7523    0.0000 H       1  UNL1        0.0671
    114 H           8.5991   -4.4960    0.0000 H       1  UNL1        0.1085
    115 H          13.6217    6.9261    0.0000 H       1  UNL1        0.0647
    116 H          14.1351    4.5274    0.0000 H       1  UNL1        0.0587
    117 H          14.5416    5.2130    0.0000 H       1  UNL1        0.0587
    118 H           8.5991   -6.7360    0.0000 H       1  UNL1        0.0683
    119 H          14.4747    5.7962    0.0000 H       1  UNL1        0.0643
    120 H          11.3564    7.2623    0.0000 H       1  UNL1        0.2101
    121 H           7.1962   -6.9260    0.0000 H       1  UNL1        0.0648
    122 H           6.8671   -4.4960    0.0000 H       1  UNL1        0.0647
    123 H           6.3301   -5.8060    0.0000 H       1  UNL1        0.0647
    124 H          13.6332    7.9260    0.0000 H       1  UNL1        0.2100
    125 H          10.0021   -6.3060    0.0000 H       1  UNL1        0.2102
    126 H          15.3464    6.2861    0.0000 H       1  UNL1        0.2100
    127 H           5.3905   -4.5084    0.0000 H       1  UNL1        0.0587
    128 H           5.7890   -5.1986    0.0000 H       1  UNL1        0.0587
    129 H           7.1962   -7.9260    0.0000 H       1  UNL1        0.2100
    130 H           5.4641   -6.3060    0.0000 H       1  UNL1        0.2100
    131 H           5.1350   -3.7360    0.0000 H       1  UNL1        0.0937
    132 H           3.7320   -3.9260    0.0000 H       1  UNL1        0.0671
    133 H           2.8660   -2.8060    0.0000 H       1  UNL1        0.0648
    134 H           4.8059   -1.3060    0.0000 H       1  UNL1        0.0647
    135 H           3.4030   -1.4960    0.0000 H       1  UNL1        0.0647
    136 H           3.7320   -4.9260    0.0000 H       1  UNL1        0.2101
    137 H           4.8796   -0.7237    0.0000 H       1  UNL1        0.0584
    138 H           4.4810   -0.0334    0.0000 H       1  UNL1        0.0584
    139 H           2.0000   -3.3060    0.0000 H       1  UNL1        0.2100
    140 H           2.0000   -1.9260    0.0000 H       1  UNL1        0.2100
    141 H           3.4030    0.5040    0.0000 H       1  UNL1        0.2095
@<TRIPOS>BOND
     1    34     1    1
     2    49     1    1
     3     2    43    1
     4     2   112    1
     5     3    46    1
     6    51     3    1
     7     4    46    2
     8     5    49    1
     9     5    53    1
    10     6    51    1
    11     6    57    1
    12    50     7    1
    13     7   120    1
    14    52     8    1
    15     8   124    1
    16    54     9    1
    17     9   125    1
    18    55    10    1
    19    10   126    1
    20    56    11    1
    21    11   129    1
    22    58    12    1
    23    12   130    1
    24    13    59    1
    25    60    13    1
    26    14    60    1
    27    14    63    1
    28    61    15    1
    29    15   136    1
    30    62    16    1
    31    16   139    1
    32    64    17    1
    33    17   140    1
    34    18    65    1
    35    18   141    1
    36    19    20    1
    37    19    22    1
    38    19    24    1
    39    19    33    1
    40    20    21    1
    41    20    28    1
    42    20    66    1
    43    21    23    1
    44    21    29    1
    45    21    36    1
    46    22    27    1
    47    22    31    1
    48    22    39    1
    49    23    25    1
    50    23    26    1
    51    23    67    1
    52    24    26    1
    53    24    68    1
    54    24    69    1
    55    25    34    1
    56    25    43    1
    57    25    44    1
    58    26    70    1
    59    26    71    1
    60    27    30    1
    61    27    38    2
    62    28    38    1
    63    28    72    1
    64    28    73    1
    65    29    37    1
    66    29    74    1
    67    29    75    1
    68    30    32    1
    69    30    40    1
    70    30    76    1
    71    31    35    1
    72    31    77    1
    73    31    78    1
    74    32    35    1
    75    32    41    1
    76    32    46    1
    77    33    79    1
    78    33    80    1
    79    33    81    1
    80    34    37    1
    81    34    82    1
    82    35    83    1
    83    35    84    1
    84    36    85    1
    85    36    86    1
    86    36    87    1
    87    37    88    1
    88    37    89    1
    89    38    90    1
    90    39    91    1
    91    39    92    1
    92    39    93    1
    93    40    42    1
    94    40    94    1
    95    40    95    1
    96    41    45    1
    97    41    96    1
    98    41    97    1
    99    42    45    1
   100    42    47    1
   101    42    48    1
   102    43    98    1
   103    43    99    1
   104    44   100    1
   105    44   101    1
   106    44   102    1
   107    45   103    1
   108    45   104    1
   109    47   105    1
   110    47   106    1
   111    47   107    1
   112    48   108    1
   113    48   109    1
   114    48   110    1
   115    49    50    1
   116    49   111    1
   117    50    52    1
   118    50   113    1
   119    51    54    1
   120    51   114    1
   121    52    55    1
   122    52   115    1
   123    53    55    1
   124    53   116    1
   125    53   117    1
   126    54    56    1
   127    54   118    1
   128    55   119    1
   129    56    58    1
   130    56   121    1
   131    57    58    1
   132    57    59    1
   133    57   122    1
   134    58   123    1
   135    59   127    1
   136    59   128    1
   137    60    61    1
   138    60   131    1
   139    61    62    1
   140    61   132    1
   141    62    64    1
   142    62   133    1
   143    63    64    1
   144    63    65    1
   145    63   134    1
   146    64   135    1
   147    65   137    1
   148    65   138    1
