@<TRIPOS>MOLECULE
IMPHY017954
 9 8 0 0 0
SMALL
GASTEIGER

@<TRIPOS>ATOM
      1 C           6.6465    0.0000    0.0000 C.3     1  UNL1        0.0004
      2 C           5.9818   -1.1498    0.0000 C.3     1  UNL1        0.0046
      3 C           4.6525   -1.1498    0.0000 C.3     1  UNL1        0.0254
      4 C           3.9879   -2.3063    0.0000 C.2     1  UNL1       -0.0342
      5 C           2.6586   -2.3063    0.0000 C.2     1  UNL1       -0.0404
      6 C           1.9939   -1.1498    0.0000 C.3     1  UNL1        0.0265
      7 C           1.9939   -3.4562    0.0000 C.3     1  UNL1        0.0939
      8 C           0.6646   -3.4562    0.0000 C.2     1  UNL1        0.2117
      9 O           0.0000   -4.6060    0.0000 O.2     1  UNL1       -0.2879
@<TRIPOS>BOND
     1     1     2    1
     2     2     3    1
     3     3     4    1
     4     4     5    2
     5     5     6    1
     6     5     7    1
     7     7     8    1
     8     8     9    2
