@<TRIPOS>MOLECULE
IMPHY003904
 123 129 0 0 0
SMALL
GASTEIGER

@<TRIPOS>ATOM
      1 O           7.7331   -1.6941    0.0000 O.3     1  UNL1       -0.3448
      2 O          10.4084    6.0580    0.0000 O.3     1  UNL1       -0.3908
      3 O          10.1773   -1.0024    0.0000 O.3     1  UNL1       -0.3944
      4 O           9.4869    7.5853    0.0000 O.3     1  UNL1       -0.3941
      5 O           6.0010   -1.6941    0.0000 O.3     1  UNL1       -0.3431
      6 O           7.7331   -3.6941    0.0000 O.3     1  UNL1       -0.3841
      7 O           6.0010   -4.6941    0.0000 O.3     1  UNL1       -0.3401
      8 O           4.2690   -3.6941    0.0000 O.3     1  UNL1       -0.3866
      9 O           4.2690   -4.6941    0.0000 O.3     1  UNL1       -0.3405
     10 O           6.0010   -6.6941    0.0000 O.3     1  UNL1       -0.3841
     11 O           4.2690   -7.6941    0.0000 O.3     1  UNL1       -0.3864
     12 O           2.5369   -6.6941    0.0000 O.3     1  UNL1       -0.3865
     13 O           2.5369   -3.6941    0.0000 O.3     1  UNL1       -0.3924
     14 C           8.6342    3.0061    0.0000 C.3     1  UNL1       -0.0158
     15 C           7.7580    1.4612    0.0000 C.3     1  UNL1       -0.0217
     16 C           7.7701    2.5027    0.0000 C.3     1  UNL1       -0.0107
     17 C           8.6581    0.9369    0.0000 C.3     1  UNL1       -0.0252
     18 C           8.6303    4.0061    0.0000 C.3     1  UNL1        0.0012
     19 C           9.5461    2.5027    0.0000 C.3     1  UNL1       -0.0460
     20 C           8.6706   -0.1480    0.0000 C.3     1  UNL1        0.0206
     21 C           9.5581    1.4612    0.0000 C.3     1  UNL1       -0.0485
     22 C           6.8081    0.9369    0.0000 C.3     1  UNL1       -0.0444
     23 C           7.7624    4.5027    0.0000 C.2     1  UNL1       -0.0412
     24 C           9.5383    4.5164    0.0000 C.3     1  UNL1       -0.0160
     25 C           7.7331   -0.6941    0.0000 C.3     1  UNL1        0.0695
     26 C           8.6383    6.0754    0.0000 C.3     1  UNL1        0.0413
     27 C           6.7956   -0.1480    0.0000 C.3     1  UNL1       -0.0254
     28 C           9.6183    3.1835    0.0000 C.3     1  UNL1       -0.0582
     29 C           6.9021    2.9994    0.0000 C.2     1  UNL1       -0.0796
     30 C           6.8939    1.9645    0.0000 C.3     1  UNL1       -0.0587
     31 C           7.7423    5.5442    0.0000 C.2     1  UNL1       -0.0546
     32 C           9.5424    5.5580    0.0000 C.3     1  UNL1        0.0674
     33 C           9.6158    3.8362    0.0000 C.3     1  UNL1       -0.0549
     34 C           6.8983    3.9994    0.0000 C.2     1  UNL1       -0.0617
     35 C           9.6706   -0.1403    0.0000 C.3     1  UNL1        0.0522
     36 C           9.1773   -1.0102    0.0000 C.3     1  UNL1       -0.0548
     37 C           8.6424    7.1604    0.0000 C.3     1  UNL1       -0.0387
     38 C           6.7884    6.0611    0.0000 C.3     1  UNL1       -0.0253
     39 C           6.7674    7.1459    0.0000 C.3     1  UNL1       -0.0311
     40 C           7.7007    7.6992    0.0000 C.3     1  UNL1       -0.0466
     41 C           9.4985    6.5854    0.0000 C.3     1  UNL1        0.0559
     42 C           6.2542    8.0041    0.0000 C.3     1  UNL1       -0.0595
     43 C           5.7676    7.1305    0.0000 C.3     1  UNL1       -0.0595
     44 C           6.8671   -2.1941    0.0000 C.3     1  UNL1        0.1881
     45 C           6.8671   -3.1941    0.0000 C.3     1  UNL1        0.1345
     46 C           6.0010   -3.6941    0.0000 C.3     1  UNL1        0.1205
     47 C           5.1350   -2.1941    0.0000 C.3     1  UNL1        0.0873
     48 C           5.1350   -3.1941    0.0000 C.3     1  UNL1        0.1098
     49 C           4.2690   -1.6941    0.0000 C.3     1  UNL1       -0.0361
     50 C           5.1350   -5.1941    0.0000 C.3     1  UNL1        0.1884
     51 C           5.1350   -6.1941    0.0000 C.3     1  UNL1        0.1341
     52 C           4.2690   -6.6941    0.0000 C.3     1  UNL1        0.1141
     53 C           3.4030   -5.1941    0.0000 C.3     1  UNL1        0.1130
     54 C           3.4030   -6.1941    0.0000 C.3     1  UNL1        0.1119
     55 C           2.5369   -4.6941    0.0000 C.3     1  UNL1        0.0730
     56 H           8.5045    2.0749    0.0000 H       1  UNL1        0.0354
     57 H           9.3974    0.5176    0.0000 H       1  UNL1        0.0313
     58 H          10.1581    2.4037    0.0000 H       1  UNL1        0.0271
     59 H           9.7484    3.0888    0.0000 H       1  UNL1        0.0271
     60 H           9.7739    0.8800    0.0000 H       1  UNL1        0.0268
     61 H          10.1677    1.5743    0.0000 H       1  UNL1        0.0268
     62 H           6.6058    1.5230    0.0000 H       1  UNL1        0.0272
     63 H           6.1961    0.8379    0.0000 H       1  UNL1        0.0272
     64 H           9.7451    3.9319    0.0000 H       1  UNL1        0.0299
     65 H          10.1496    4.6202    0.0000 H       1  UNL1        0.0299
     66 H           8.2706   -1.0031    0.0000 H       1  UNL1        0.0603
     67 H           6.1860   -0.0349    0.0000 H       1  UNL1        0.0290
     68 H           6.5798   -0.7293    0.0000 H       1  UNL1        0.0290
     69 H           9.7283    2.5734    0.0000 H       1  UNL1        0.0236
     70 H          10.2284    3.2936    0.0000 H       1  UNL1        0.0236
     71 H           9.5083    3.7937    0.0000 H       1  UNL1        0.0236
     72 H           6.3664    2.6873    0.0000 H       1  UNL1        0.0575
     73 H           7.2060    2.5003    0.0000 H       1  UNL1        0.0235
     74 H           6.3582    2.2766    0.0000 H       1  UNL1        0.0235
     75 H           6.5818    1.4288    0.0000 H       1  UNL1        0.0235
     76 H          10.0787    5.2470    0.0000 H       1  UNL1        0.0603
     77 H           9.5105    3.2252    0.0000 H       1  UNL1        0.0238
     78 H          10.2268    3.7309    0.0000 H       1  UNL1        0.0238
     79 H           9.7211    4.4472    0.0000 H       1  UNL1        0.0238
     80 H           6.3601    4.3073    0.0000 H       1  UNL1        0.0617
     81 H          10.2516    0.0762    0.0000 H       1  UNL1        0.0563
     82 H           9.5582    0.4694    0.0000 H       1  UNL1        0.0563
     83 H           8.6428   -1.3243    0.0000 H       1  UNL1        0.0237
     84 H           9.4914   -1.5447    0.0000 H       1  UNL1        0.0237
     85 H           9.7118   -0.6960    0.0000 H       1  UNL1        0.0237
     86 H           9.2529    7.0519    0.0000 H       1  UNL1        0.0275
     87 H           8.8538    7.7433    0.0000 H       1  UNL1        0.0275
     88 H           6.1756    6.1554    0.0000 H       1  UNL1        0.0316
     89 H           6.5906    5.4735    0.0000 H       1  UNL1        0.0316
     90 H           8.0962    8.1767    0.0000 H       1  UNL1        0.0271
     91 H           7.2980    8.1706    0.0000 H       1  UNL1        0.0271
     92 H           9.7172    6.0052    0.0000 H       1  UNL1        0.0567
     93 H          10.1078    6.7001    0.0000 H       1  UNL1        0.0567
     94 H          10.9453    5.7480    0.0000 H       1  UNL1        0.2098
     95 H           5.7580    7.7504    0.0000 H       1  UNL1        0.0235
     96 H           6.7862    8.3224    0.0000 H       1  UNL1        0.0235
     97 H           5.1476    7.1209    0.0000 H       1  UNL1        0.0235
     98 H           5.7771    6.5106    0.0000 H       1  UNL1        0.0235
     99 H           5.9359    8.5362    0.0000 H       1  UNL1        0.0235
    100 H           5.7220    7.6859    0.0000 H       1  UNL1        0.0235
    101 H           7.4040   -2.5041    0.0000 H       1  UNL1        0.0937
    102 H          10.7972   -0.9977    0.0000 H       1  UNL1        0.2094
    103 H          10.0202    7.9015    0.0000 H       1  UNL1        0.2094
    104 H           6.8671   -3.8141    0.0000 H       1  UNL1        0.0671
    105 H           5.4641   -4.0041    0.0000 H       1  UNL1        0.0651
    106 H           5.1350   -1.5741    0.0000 H       1  UNL1        0.0621
    107 H           4.5981   -2.8841    0.0000 H       1  UNL1        0.0646
    108 H           7.7331   -4.3141    0.0000 H       1  UNL1        0.2101
    109 H           4.5790   -1.1572    0.0000 H       1  UNL1        0.0255
    110 H           3.7320   -1.3841    0.0000 H       1  UNL1        0.0255
    111 H           3.9590   -2.2311    0.0000 H       1  UNL1        0.0255
    112 H           3.7320   -3.3841    0.0000 H       1  UNL1        0.2100
    113 H           5.1350   -4.5741    0.0000 H       1  UNL1        0.0938
    114 H           5.1350   -6.8141    0.0000 H       1  UNL1        0.0671
    115 H           3.7320   -7.0041    0.0000 H       1  UNL1        0.0648
    116 H           3.4030   -4.5741    0.0000 H       1  UNL1        0.0647
    117 H           2.8660   -5.8841    0.0000 H       1  UNL1        0.0647
    118 H           6.0010   -7.3141    0.0000 H       1  UNL1        0.2101
    119 H           1.9264   -4.5865    0.0000 H       1  UNL1        0.0584
    120 H           2.3249   -5.2767    0.0000 H       1  UNL1        0.0584
    121 H           3.7320   -8.0041    0.0000 H       1  UNL1        0.2100
    122 H           2.0000   -6.3841    0.0000 H       1  UNL1        0.2100
    123 H           2.0000   -3.3841    0.0000 H       1  UNL1        0.2095
@<TRIPOS>BOND
     1    25     1    1
     2    44     1    1
     3    32     2    1
     4     2    94    1
     5     3    35    1
     6     3   102    1
     7     4    41    1
     8     4   103    1
     9     5    44    1
    10     5    47    1
    11    45     6    1
    12     6   108    1
    13    46     7    1
    14    50     7    1
    15    48     8    1
    16     8   112    1
    17     9    50    1
    18     9    53    1
    19    51    10    1
    20    10   118    1
    21    52    11    1
    22    11   121    1
    23    54    12    1
    24    12   122    1
    25    13    55    1
    26    13   123    1
    27    14    16    1
    28    14    18    1
    29    14    19    1
    30    14    28    1
    31    15    16    1
    32    15    17    1
    33    15    22    1
    34    15    30    1
    35    16    29    1
    36    16    56    1
    37    17    20    1
    38    17    21    1
    39    17    57    1
    40    18    23    1
    41    18    24    1
    42    18    33    1
    43    19    21    1
    44    19    58    1
    45    19    59    1
    46    20    25    1
    47    20    35    1
    48    20    36    1
    49    21    60    1
    50    21    61    1
    51    22    27    1
    52    22    62    1
    53    22    63    1
    54    23    31    2
    55    23    34    1
    56    24    32    1
    57    24    64    1
    58    24    65    1
    59    25    27    1
    60    25    66    1
    61    26    31    1
    62    26    32    1
    63    26    37    1
    64    26    41    1
    65    27    67    1
    66    27    68    1
    67    28    69    1
    68    28    70    1
    69    28    71    1
    70    29    34    2
    71    29    72    1
    72    30    73    1
    73    30    74    1
    74    30    75    1
    75    31    38    1
    76    32    76    1
    77    33    77    1
    78    33    78    1
    79    33    79    1
    80    34    80    1
    81    35    81    1
    82    35    82    1
    83    36    83    1
    84    36    84    1
    85    36    85    1
    86    37    40    1
    87    37    86    1
    88    37    87    1
    89    38    39    1
    90    38    88    1
    91    38    89    1
    92    39    40    1
    93    39    42    1
    94    39    43    1
    95    40    90    1
    96    40    91    1
    97    41    92    1
    98    41    93    1
    99    42    96    1
   100    42    99    1
   101    42   100    1
   102    43    95    1
   103    43    97    1
   104    43    98    1
   105    44    45    1
   106    44   101    1
   107    45    46    1
   108    45   104    1
   109    46    48    1
   110    46   105    1
   111    47    48    1
   112    47    49    1
   113    47   106    1
   114    48   107    1
   115    49   109    1
   116    49   110    1
   117    49   111    1
   118    50    51    1
   119    50   113    1
   120    51    52    1
   121    51   114    1
   122    52    54    1
   123    52   115    1
   124    53    54    1
   125    53    55    1
   126    53   116    1
   127    54   117    1
   128    55   119    1
   129    55   120    1
