@<TRIPOS>MOLECULE
IMPHY013560
 69 71 0 0 0
SMALL
GASTEIGER

@<TRIPOS>ATOM
      1 O           6.2188   -1.0397    0.0000 O.3     1  UNL1       -0.3750
      2 O           5.6993    1.1352    0.0000 O.3     1  UNL1       -0.3708
      3 O           4.8100    1.3691    0.0000 O.3     1  UNL1       -0.3857
      4 O           3.3100    1.2352    0.0000 O.3     1  UNL1       -0.3868
      5 O           4.0672   -0.5397    0.0000 O.2     1  UNL1       -0.2887
      6 O           8.0478    1.3540    0.0000 O.2     1  UNL1       -0.2884
      7 O           6.9345   -1.2584    0.0000 O.2     1  UNL1       -0.2849
      8 O           2.3100   -0.4968    0.0000 O.3     1  UNL1       -0.3924
      9 O           8.8139    0.7112    0.0000 O.2     1  UNL1       -0.2834
     10 O           6.6653   -4.0397    0.0000 O.3     1  UNL1       -0.5032
     11 O           3.2012   -4.0397    0.0000 O.3     1  UNL1       -0.5032
     12 O           4.8815    3.6656    0.0000 O.3     1  UNL1       -0.5032
     13 O           8.2929    4.2671    0.0000 O.3     1  UNL1       -0.5032
     14 O           4.9333   -5.0397    0.0000 O.3     1  UNL1       -0.5009
     15 O           6.4136    4.9512    0.0000 O.3     1  UNL1       -0.5009
     16 O          11.4593   -0.5332    0.0000 O.3     1  UNL1       -0.5032
     17 O           9.2326   -3.1868    0.0000 O.3     1  UNL1       -0.5032
     18 O          11.1120   -2.5028    0.0000 O.3     1  UNL1       -0.5009
     19 C           5.5761   -0.2736    0.0000 C.3     1  UNL1        0.1998
     20 C           6.3421    0.3691    0.0000 C.3     1  UNL1        0.2324
     21 C           4.8100    0.3691    0.0000 C.3     1  UNL1        0.1227
     22 C           3.8100    0.3692    0.0000 C.3     1  UNL1        0.1072
     23 C           4.9333   -1.0397    0.0000 C.2     1  UNL1        0.2011
     24 C           7.1081    1.0119    0.0000 C.2     1  UNL1        0.2060
     25 C           7.1081   -0.2736    0.0000 C.2     1  UNL1        0.2453
     26 C           3.3100   -0.4969    0.0000 C.3     1  UNL1        0.0727
     27 C           4.9333   -2.0397    0.0000 C.ar    1  UNL1        0.0277
     28 C           6.9345    1.9967    0.0000 C.ar    1  UNL1        0.0280
     29 C           8.0478    0.0684    0.0000 C.2     1  UNL1        0.2318
     30 C           4.0672   -2.5397    0.0000 C.ar    1  UNL1       -0.0057
     31 C           5.7993   -2.5397    0.0000 C.ar    1  UNL1       -0.0057
     32 C           7.7005    2.6395    0.0000 C.ar    1  UNL1       -0.0057
     33 C           5.9948    2.3388    0.0000 C.ar    1  UNL1       -0.0057
     34 C           8.8139   -0.5744    0.0000 C.ar    1  UNL1        0.0324
     35 C           5.7993   -3.5397    0.0000 C.ar    1  UNL1        0.1626
     36 C           4.0672   -3.5397    0.0000 C.ar    1  UNL1        0.1626
     37 C           5.8212    3.3236    0.0000 C.ar    1  UNL1        0.1626
     38 C           7.5269    3.6243    0.0000 C.ar    1  UNL1        0.1626
     39 C           4.9333   -4.0397    0.0000 C.ar    1  UNL1        0.2006
     40 C           6.5872    3.9664    0.0000 C.ar    1  UNL1        0.2006
     41 C           8.6402   -1.5592    0.0000 C.ar    1  UNL1       -0.0054
     42 C           9.7536   -0.2324    0.0000 C.ar    1  UNL1       -0.0054
     43 C          10.5196   -0.8752    0.0000 C.ar    1  UNL1        0.1626
     44 C           9.4063   -2.2020    0.0000 C.ar    1  UNL1        0.1626
     45 C          10.3460   -1.8600    0.0000 C.ar    1  UNL1        0.2006
     46 H           5.3719    0.6312    0.0000 H       1  UNL1        0.0655
     47 H           4.1200    0.9062    0.0000 H       1  UNL1        0.0643
     48 H           6.0068   -1.6223    0.0000 H       1  UNL1        0.2110
     49 H           3.2023   -1.1074    0.0000 H       1  UNL1        0.0584
     50 H           3.8926   -0.7089    0.0000 H       1  UNL1        0.0584
     51 H           5.9114    1.7178    0.0000 H       1  UNL1        0.2114
     52 H           4.2731    1.6791    0.0000 H       1  UNL1        0.2100
     53 H           2.6900    1.2352    0.0000 H       1  UNL1        0.2100
     54 H           3.5303   -2.2297    0.0000 H       1  UNL1        0.0662
     55 H           6.3362   -2.2297    0.0000 H       1  UNL1        0.0662
     56 H           8.2831    2.4275    0.0000 H       1  UNL1        0.0662
     57 H           5.5199    1.9402    0.0000 H       1  UNL1        0.0662
     58 H           2.0000    0.0401    0.0000 H       1  UNL1        0.2095
     59 H           8.0576   -1.7713    0.0000 H       1  UNL1        0.0662
     60 H           9.8612    0.3782    0.0000 H       1  UNL1        0.0662
     61 H           7.2022   -3.7297    0.0000 H       1  UNL1        0.2923
     62 H           2.6643   -3.7297    0.0000 H       1  UNL1        0.2923
     63 H           4.7738    4.2762    0.0000 H       1  UNL1        0.2923
     64 H           8.8756    4.0551    0.0000 H       1  UNL1        0.2923
     65 H           4.3963   -5.3497    0.0000 H       1  UNL1        0.2924
     66 H           6.8885    5.3497    0.0000 H       1  UNL1        0.2924
     67 H          11.9343   -0.9317    0.0000 H       1  UNL1        0.2923
     68 H           9.7076   -3.5853    0.0000 H       1  UNL1        0.2923
     69 H          11.6946   -2.2907    0.0000 H       1  UNL1        0.2924
@<TRIPOS>BOND
     1    19     1    1
     2     1    48    1
     3    20     2    1
     4     2    51    1
     5    21     3    1
     6     3    52    1
     7    22     4    1
     8     4    53    1
     9     5    23    2
    10     6    24    2
    11     7    25    2
    12     8    26    1
    13     8    58    1
    14     9    29    2
    15    10    35    1
    16    10    61    1
    17    11    36    1
    18    11    62    1
    19    12    37    1
    20    12    63    1
    21    13    38    1
    22    13    64    1
    23    14    39    1
    24    14    65    1
    25    15    40    1
    26    15    66    1
    27    16    43    1
    28    16    67    1
    29    17    44    1
    30    17    68    1
    31    18    45    1
    32    18    69    1
    33    19    20    1
    34    19    21    1
    35    19    23    1
    36    20    24    1
    37    20    25    1
    38    21    22    1
    39    21    46    1
    40    22    26    1
    41    22    47    1
    42    23    27    1
    43    24    28    1
    44    25    29    1
    45    26    49    1
    46    26    50    1
    47    27    30   ar
    48    27    31   ar
    49    28    32   ar
    50    28    33   ar
    51    29    34    1
    52    30    36   ar
    53    30    54    1
    54    31    35   ar
    55    31    55    1
    56    32    38   ar
    57    32    56    1
    58    33    37   ar
    59    33    57    1
    60    34    41   ar
    61    34    42   ar
    62    35    39   ar
    63    36    39   ar
    64    37    40   ar
    65    38    40   ar
    66    41    44   ar
    67    41    59    1
    68    42    43   ar
    69    42    60    1
    70    43    45   ar
    71    44    45   ar
