@<TRIPOS>MOLECULE
IMPHY013475
 130 138 0 0 0
SMALL
GASTEIGER

@<TRIPOS>ATOM
      1 O           5.6165    5.0555    0.0000 O.3     1  UNL1       -0.3448
      2 O           4.4522    3.4472    0.0000 O.3     1  UNL1       -0.3480
      3 O          10.1438    1.0816    0.0000 O.3     1  UNL1       -0.3445
      4 O          13.5310    2.3441    0.0000 O.3     1  UNL1       -0.3914
      5 O           8.4118    1.0816    0.0000 O.3     1  UNL1       -0.3431
      6 O          10.1438   -0.9184    0.0000 O.3     1  UNL1       -0.3378
      7 O           8.4118   -1.9184    0.0000 O.3     1  UNL1       -0.3401
      8 O           6.6797   -0.9184    0.0000 O.3     1  UNL1       -0.3866
      9 O          11.6438   -0.0523    0.0000 O.3     1  UNL1       -0.3431
     10 O           6.6797   -1.9184    0.0000 O.3     1  UNL1       -0.3461
     11 O          11.1438   -2.6504    0.0000 O.3     1  UNL1       -0.3841
     12 O          13.1438   -2.6504    0.0000 O.3     1  UNL1       -0.3864
     13 O           8.4118   -3.9184    0.0000 O.3     1  UNL1       -0.3841
     14 O          14.1438   -0.9184    0.0000 O.3     1  UNL1       -0.3866
     15 O           6.6797   -4.9184    0.0000 O.3     1  UNL1       -0.3864
     16 O           4.9477   -3.9184    0.0000 O.3     1  UNL1       -0.3869
     17 C           7.4171    3.3549    0.0000 C.3     1  UNL1       -0.0233
     18 C           8.0449    4.1331    0.0000 C.3     1  UNL1       -0.0295
     19 C           6.4893    3.7119    0.0000 C.3     1  UNL1       -0.0015
     20 C           9.0329    3.9785    0.0000 C.3     1  UNL1       -0.0305
     21 C           6.5403    4.7046    0.0000 C.3     1  UNL1        0.0660
     22 C           9.3930    3.0456    0.0000 C.3     1  UNL1       -0.0262
     23 C           7.4998    4.9644    0.0000 C.3     1  UNL1       -0.0226
     24 C           7.7771    2.4220    0.0000 C.3     1  UNL1       -0.0467
     25 C           5.5343    3.4577    0.0000 C.3     1  UNL1        0.0160
     26 C           8.7650    2.2673    0.0000 C.3     1  UNL1       -0.0486
     27 C          10.4194    2.8687    0.0000 C.3     1  UNL1        0.0184
     28 C           4.9961    4.2864    0.0000 C.3     1  UNL1        0.1732
     29 C           6.7891    2.5766    0.0000 C.3     1  UNL1       -0.0590
     30 C           9.6744    4.7992    0.0000 C.3     1  UNL1       -0.0311
     31 C          11.0797    3.6743    0.0000 C.2     1  UNL1       -0.0624
     32 C          10.7866    1.8477    0.0000 C.3     1  UNL1        0.0734
     33 C           5.1752    2.5244    0.0000 C.3     1  UNL1       -0.0572
     34 C          10.7047    4.6460    0.0000 C.2     1  UNL1       -0.0838
     35 C           4.5412    5.1770    0.0000 C.3     1  UNL1        0.0020
     36 C           9.7856    2.0952    0.0000 C.3     1  UNL1       -0.0532
     37 C          12.1529    3.5148    0.0000 C.3     1  UNL1       -0.0049
     38 C          11.8558    1.6634    0.0000 C.3     1  UNL1        0.0007
     39 C          12.5436    2.5026    0.0000 C.3     1  UNL1        0.0613
     40 C           3.5425    5.2284    0.0000 C.3     1  UNL1       -0.0435
     41 C           2.9987    4.3892    0.0000 C.3     1  UNL1       -0.0201
     42 C           3.4535    3.4986    0.0000 C.3     1  UNL1        0.0535
     43 C           9.2778    0.5816    0.0000 C.3     1  UNL1        0.1885
     44 C           2.0000    4.4406    0.0000 C.3     1  UNL1       -0.0603
     45 C           9.2778   -0.4184    0.0000 C.3     1  UNL1        0.1410
     46 C           8.4118   -0.9184    0.0000 C.3     1  UNL1        0.1209
     47 C           7.5457    0.5816    0.0000 C.3     1  UNL1        0.0873
     48 C           7.5457   -0.4184    0.0000 C.3     1  UNL1        0.1099
     49 C           6.6797    1.0816    0.0000 C.3     1  UNL1       -0.0361
     50 C          11.1438   -0.9184    0.0000 C.3     1  UNL1        0.1884
     51 C           7.5457   -2.4184    0.0000 C.3     1  UNL1        0.1880
     52 C          11.6438   -1.7844    0.0000 C.3     1  UNL1        0.1341
     53 C          12.6438   -1.7844    0.0000 C.3     1  UNL1        0.1140
     54 C           7.5457   -3.4184    0.0000 C.3     1  UNL1        0.1341
     55 C          12.6438   -0.0523    0.0000 C.3     1  UNL1        0.0873
     56 C          13.1438   -0.9184    0.0000 C.3     1  UNL1        0.1095
     57 C           6.6797   -3.9184    0.0000 C.3     1  UNL1        0.1137
     58 C           5.8137   -2.4184    0.0000 C.3     1  UNL1        0.0792
     59 C           5.8137   -3.4184    0.0000 C.3     1  UNL1        0.1069
     60 C          13.1438    0.8137    0.0000 C.3     1  UNL1       -0.0361
     61 H           8.5056    4.8474    0.0000 H       1  UNL1        0.0310
     62 H           6.4438    2.8631    0.0000 H       1  UNL1        0.0335
     63 H           8.7207    4.7691    0.0000 H       1  UNL1        0.0310
     64 H           6.5822    5.5536    0.0000 H       1  UNL1        0.0600
     65 H           9.9318    3.7030    0.0000 H       1  UNL1        0.0313
     66 H           8.0512    5.2480    0.0000 H       1  UNL1        0.0293
     67 H           7.2758    5.5425    0.0000 H       1  UNL1        0.0293
     68 H           7.1687    2.3026    0.0000 H       1  UNL1        0.0271
     69 H           7.7890    1.8021    0.0000 H       1  UNL1        0.0271
     70 H           5.9486    2.9964    0.0000 H       1  UNL1        0.0354
     71 H           8.5642    1.6807    0.0000 H       1  UNL1        0.0268
     72 H           9.3078    1.9677    0.0000 H       1  UNL1        0.0268
     73 H           6.3066    2.9659    0.0000 H       1  UNL1        0.0235
     74 H           6.3998    2.0941    0.0000 H       1  UNL1        0.0235
     75 H           7.2717    2.1873    0.0000 H       1  UNL1        0.0235
     76 H           9.8691    5.3878    0.0000 H       1  UNL1        0.0310
     77 H           9.1277    5.0918    0.0000 H       1  UNL1        0.0310
     78 H          10.9998    1.2655    0.0000 H       1  UNL1        0.0606
     79 H           4.5966    2.7470    0.0000 H       1  UNL1        0.0234
     80 H           4.9526    1.9457    0.0000 H       1  UNL1        0.0234
     81 H           5.7539    2.3017    0.0000 H       1  UNL1        0.0234
     82 H          11.0921    5.1301    0.0000 H       1  UNL1        0.0572
     83 H           5.1340    5.3588    0.0000 H       1  UNL1        0.0317
     84 H           4.4651    5.7923    0.0000 H       1  UNL1        0.0317
     85 H           9.3060    2.4882    0.0000 H       1  UNL1        0.0239
     86 H           9.3926    1.6157    0.0000 H       1  UNL1        0.0239
     87 H          10.2651    1.7022    0.0000 H       1  UNL1        0.0239
     88 H          12.7610    3.6357    0.0000 H       1  UNL1        0.0335
     89 H          12.1378    4.1346    0.0000 H       1  UNL1        0.0335
     90 H          11.6475    1.0794    0.0000 H       1  UNL1        0.0315
     91 H          12.3955    1.3582    0.0000 H       1  UNL1        0.0315
     92 H          12.9338    2.9843    0.0000 H       1  UNL1        0.0597
     93 H           3.6814    5.8326    0.0000 H       1  UNL1        0.0270
     94 H           2.9716    5.4701    0.0000 H       1  UNL1        0.0270
     95 H           2.7167    4.9413    0.0000 H       1  UNL1        0.0320
     96 H           2.8608    3.3168    0.0000 H       1  UNL1        0.0563
     97 H           3.5297    2.8833    0.0000 H       1  UNL1        0.0563
     98 H           9.8147    0.2716    0.0000 H       1  UNL1        0.0938
     99 H           2.0319    5.0597    0.0000 H       1  UNL1        0.0233
    100 H           1.3808    4.4724    0.0000 H       1  UNL1        0.0233
    101 H           1.9681    3.8214    0.0000 H       1  UNL1        0.0233
    102 H          13.9221    2.8251    0.0000 H       1  UNL1        0.2098
    103 H           9.2778   -1.0384    0.0000 H       1  UNL1        0.0675
    104 H           7.8748   -1.2284    0.0000 H       1  UNL1        0.0651
    105 H           7.5457    1.2016    0.0000 H       1  UNL1        0.0621
    106 H           7.0088   -0.1084    0.0000 H       1  UNL1        0.0646
    107 H           6.9897    1.6186    0.0000 H       1  UNL1        0.0255
    108 H           6.1428    1.3916    0.0000 H       1  UNL1        0.0255
    109 H           6.3697    0.5447    0.0000 H       1  UNL1        0.0255
    110 H          10.8338   -1.4553    0.0000 H       1  UNL1        0.0938
    111 H           6.1428   -0.6084    0.0000 H       1  UNL1        0.2100
    112 H           8.0827   -2.7284    0.0000 H       1  UNL1        0.0937
    113 H          11.9538   -2.3213    0.0000 H       1  UNL1        0.0671
    114 H          12.3338   -2.3213    0.0000 H       1  UNL1        0.0648
    115 H           7.5457   -4.0384    0.0000 H       1  UNL1        0.0671
    116 H          12.3338    0.4846    0.0000 H       1  UNL1        0.0621
    117 H          13.4538   -1.4553    0.0000 H       1  UNL1        0.0646
    118 H           6.1428   -4.2284    0.0000 H       1  UNL1        0.0647
    119 H          11.4538   -3.1874    0.0000 H       1  UNL1        0.2101
    120 H           5.6016   -1.8358    0.0000 H       1  UNL1        0.0587
    121 H           5.2031   -2.5260    0.0000 H       1  UNL1        0.0587
    122 H           5.2768   -3.1084    0.0000 H       1  UNL1        0.0643
    123 H          13.6808    0.5037    0.0000 H       1  UNL1        0.0255
    124 H          13.4538    1.3506    0.0000 H       1  UNL1        0.0255
    125 H          12.6069    1.1237    0.0000 H       1  UNL1        0.0255
    126 H          13.7638   -2.6504    0.0000 H       1  UNL1        0.2100
    127 H           8.4118   -4.5384    0.0000 H       1  UNL1        0.2101
    128 H          14.4538   -1.4553    0.0000 H       1  UNL1        0.2100
    129 H           6.1428   -5.2284    0.0000 H       1  UNL1        0.2100
    130 H           4.4107   -3.6084    0.0000 H       1  UNL1        0.2100
@<TRIPOS>BOND
     1     1    21    1
     2    28     1    1
     3     2    28    1
     4     2    42    1
     5    32     3    1
     6    43     3    1
     7    39     4    1
     8     4   102    1
     9     5    43    1
    10     5    47    1
    11    45     6    1
    12    50     6    1
    13    46     7    1
    14    51     7    1
    15    48     8    1
    16     8   111    1
    17     9    50    1
    18     9    55    1
    19    10    51    1
    20    10    58    1
    21    52    11    1
    22    11   119    1
    23    53    12    1
    24    12   126    1
    25    54    13    1
    26    13   127    1
    27    56    14    1
    28    14   128    1
    29    57    15    1
    30    15   129    1
    31    59    16    1
    32    16   130    1
    33    17    18    1
    34    17    19    1
    35    17    24    1
    36    17    29    1
    37    18    20    1
    38    18    23    1
    39    18    61    1
    40    19    21    1
    41    19    25    1
    42    19    62    1
    43    20    22    1
    44    20    30    1
    45    20    63    1
    46    21    23    1
    47    21    64    1
    48    22    26    1
    49    22    27    1
    50    22    65    1
    51    23    66    1
    52    23    67    1
    53    24    26    1
    54    24    68    1
    55    24    69    1
    56    25    28    1
    57    25    33    1
    58    25    70    1
    59    26    71    1
    60    26    72    1
    61    27    31    1
    62    27    32    1
    63    27    36    1
    64    28    35    1
    65    29    73    1
    66    29    74    1
    67    29    75    1
    68    30    34    1
    69    30    76    1
    70    30    77    1
    71    31    34    2
    72    31    37    1
    73    32    38    1
    74    32    78    1
    75    33    79    1
    76    33    80    1
    77    33    81    1
    78    34    82    1
    79    35    40    1
    80    35    83    1
    81    35    84    1
    82    36    85    1
    83    36    86    1
    84    36    87    1
    85    37    39    1
    86    37    88    1
    87    37    89    1
    88    38    39    1
    89    38    90    1
    90    38    91    1
    91    39    92    1
    92    40    41    1
    93    40    93    1
    94    40    94    1
    95    41    42    1
    96    41    44    1
    97    41    95    1
    98    42    96    1
    99    42    97    1
   100    43    45    1
   101    43    98    1
   102    44    99    1
   103    44   100    1
   104    44   101    1
   105    45    46    1
   106    45   103    1
   107    46    48    1
   108    46   104    1
   109    47    48    1
   110    47    49    1
   111    47   105    1
   112    48   106    1
   113    49   107    1
   114    49   108    1
   115    49   109    1
   116    50    52    1
   117    50   110    1
   118    51    54    1
   119    51   112    1
   120    52    53    1
   121    52   113    1
   122    53    56    1
   123    53   114    1
   124    54    57    1
   125    54   115    1
   126    55    56    1
   127    55    60    1
   128    55   116    1
   129    56   117    1
   130    57    59    1
   131    57   118    1
   132    58    59    1
   133    58   120    1
   134    58   121    1
   135    59   122    1
   136    60   123    1
   137    60   124    1
   138    60   125    1
