@<TRIPOS>MOLECULE
IMPHY015311
 23 22 0 0 0
SMALL
GASTEIGER

@<TRIPOS>ATOM
      1 C           3.7320    0.0000    0.0000 C.3     1  UNL1       -0.0354
      2 C           4.5981    0.5000    0.0000 C.3     1  UNL1       -0.0507
      3 C           2.8660   -0.5000    0.0000 C.3     1  UNL1       -0.0507
      4 C           3.2320    0.8660    0.0000 C.3     1  UNL1       -0.0598
      5 C           4.2320   -0.8660    0.0000 C.3     1  UNL1       -0.0598
      6 C           5.4641    0.0000    0.0000 C.3     1  UNL1       -0.0648
      7 C           2.0000   -0.0000    0.0000 C.3     1  UNL1       -0.0648
      8 H           4.9966    0.9749    0.0000 H       1  UNL1        0.0268
      9 H           4.1996    0.9749    0.0000 H       1  UNL1        0.0268
     10 H           2.4675   -0.9749    0.0000 H       1  UNL1        0.0268
     11 H           3.2646   -0.9749    0.0000 H       1  UNL1        0.0268
     12 H           3.7690    1.1760    0.0000 H       1  UNL1        0.0235
     13 H           2.9220    1.4030    0.0000 H       1  UNL1        0.0235
     14 H           2.6951    0.5560    0.0000 H       1  UNL1        0.0235
     15 H           3.6951   -1.1760    0.0000 H       1  UNL1        0.0235
     16 H           4.5420   -1.4030    0.0000 H       1  UNL1        0.0235
     17 H           4.7690   -0.5560    0.0000 H       1  UNL1        0.0235
     18 H           5.1541   -0.5369    0.0000 H       1  UNL1        0.0230
     19 H           6.0010   -0.3100    0.0000 H       1  UNL1        0.0230
     20 H           5.7741    0.5369    0.0000 H       1  UNL1        0.0230
     21 H           2.3100    0.5369    0.0000 H       1  UNL1        0.0230
     22 H           1.4631    0.3100    0.0000 H       1  UNL1        0.0230
     23 H           1.6900   -0.5369    0.0000 H       1  UNL1        0.0230
@<TRIPOS>BOND
     1     1     2    1
     2     1     3    1
     3     1     4    1
     4     1     5    1
     5     2     6    1
     6     2     8    1
     7     2     9    1
     8     3     7    1
     9     3    10    1
    10     3    11    1
    11     4    12    1
    12     4    13    1
    13     4    14    1
    14     5    15    1
    15     5    16    1
    16     5    17    1
    17     6    18    1
    18     6    19    1
    19     6    20    1
    20     7    21    1
    21     7    22    1
    22     7    23    1
