@<TRIPOS>MOLECULE
IMPHY016204
 59 58 0 0 0
SMALL
GASTEIGER

@<TRIPOS>ATOM
      1 O           2.8660    0.4400    0.0000 O.3     1  UNL1       -0.4679
      2 O           3.7320   -1.0600    0.0000 O.2     1  UNL1       -0.2509
      3 C           8.0622    0.4400    0.0000 C.3     1  UNL1       -0.0531
      4 C           8.9282   -0.0600    0.0000 C.3     1  UNL1       -0.0530
      5 C           7.1962   -0.0600    0.0000 C.3     1  UNL1       -0.0530
      6 C           9.7942    0.4400    0.0000 C.3     1  UNL1       -0.0528
      7 C           6.3301    0.4400    0.0000 C.3     1  UNL1       -0.0526
      8 C          10.6603   -0.0600    0.0000 C.3     1  UNL1       -0.0496
      9 C           5.4641   -0.0600    0.0000 C.3     1  UNL1       -0.0430
     10 C          11.5263    0.4400    0.0000 C.3     1  UNL1       -0.0348
     11 C           4.5981    0.4400    0.0000 C.3     1  UNL1        0.0449
     12 C          12.3923   -0.0600    0.0000 C.2     1  UNL1       -0.0876
     13 C           3.7320   -0.0600    0.0000 C.2     1  UNL1        0.3068
     14 C          13.2583    0.4400    0.0000 C.2     1  UNL1       -0.0842
     15 C          14.1244   -0.0600    0.0000 C.3     1  UNL1       -0.0165
     16 C          14.9904    0.4400    0.0000 C.2     1  UNL1       -0.0839
     17 C          15.8564   -0.0600    0.0000 C.2     1  UNL1       -0.0839
     18 C           2.0000   -0.0600    0.0000 C.3     1  UNL1        0.0817
     19 C          16.7224    0.4400    0.0000 C.3     1  UNL1       -0.0165
     20 C          17.5885   -0.0600    0.0000 C.2     1  UNL1       -0.0842
     21 C          18.4545    0.4400    0.0000 C.2     1  UNL1       -0.0879
     22 C          19.3205   -0.0600    0.0000 C.3     1  UNL1       -0.0376
     23 C          20.1865    0.4400    0.0000 C.3     1  UNL1       -0.0618
     24 H           8.4607    0.9149    0.0000 H       1  UNL1        0.0265
     25 H           7.6636    0.9149    0.0000 H       1  UNL1        0.0265
     26 H           8.5297   -0.5349    0.0000 H       1  UNL1        0.0265
     27 H           9.3267   -0.5349    0.0000 H       1  UNL1        0.0265
     28 H           6.7976   -0.5349    0.0000 H       1  UNL1        0.0265
     29 H           7.5947   -0.5349    0.0000 H       1  UNL1        0.0265
     30 H          10.1928    0.9149    0.0000 H       1  UNL1        0.0265
     31 H           9.3957    0.9149    0.0000 H       1  UNL1        0.0265
     32 H           6.7287    0.9149    0.0000 H       1  UNL1        0.0265
     33 H           5.9316    0.9149    0.0000 H       1  UNL1        0.0265
     34 H          10.2617   -0.5349    0.0000 H       1  UNL1        0.0268
     35 H          11.0588   -0.5349    0.0000 H       1  UNL1        0.0268
     36 H           5.0656   -0.5349    0.0000 H       1  UNL1        0.0270
     37 H           5.8626   -0.5349    0.0000 H       1  UNL1        0.0270
     38 H          11.9248    0.9149    0.0000 H       1  UNL1        0.0307
     39 H          11.1278    0.9149    0.0000 H       1  UNL1        0.0307
     40 H           4.9966    0.9149    0.0000 H       1  UNL1        0.0377
     41 H           4.1996    0.9149    0.0000 H       1  UNL1        0.0377
     42 H          12.3923   -0.6800    0.0000 H       1  UNL1        0.0569
     43 H          13.2583    1.0600    0.0000 H       1  UNL1        0.0572
     44 H          13.7258   -0.5349    0.0000 H       1  UNL1        0.0350
     45 H          14.5229   -0.5349    0.0000 H       1  UNL1        0.0350
     46 H          14.9904    1.0600    0.0000 H       1  UNL1        0.0572
     47 H          15.8564   -0.6800    0.0000 H       1  UNL1        0.0572
     48 H           1.6900    0.4769    0.0000 H       1  UNL1        0.0661
     49 H           1.4631   -0.3700    0.0000 H       1  UNL1        0.0661
     50 H           2.3100   -0.5969    0.0000 H       1  UNL1        0.0661
     51 H          17.1210    0.9149    0.0000 H       1  UNL1        0.0350
     52 H          16.3239    0.9149    0.0000 H       1  UNL1        0.0350
     53 H          17.5885   -0.6800    0.0000 H       1  UNL1        0.0572
     54 H          18.4545    1.0600    0.0000 H       1  UNL1        0.0569
     55 H          18.9220   -0.5349    0.0000 H       1  UNL1        0.0305
     56 H          19.7190   -0.5349    0.0000 H       1  UNL1        0.0305
     57 H          20.4965   -0.0969    0.0000 H       1  UNL1        0.0233
     58 H          20.7235    0.7500    0.0000 H       1  UNL1        0.0233
     59 H          19.8765    0.9769    0.0000 H       1  UNL1        0.0233
@<TRIPOS>BOND
     1     1    13    1
     2     1    18    1
     3     2    13    2
     4     3     4    1
     5     3     5    1
     6     3    24    1
     7     3    25    1
     8     4     6    1
     9     4    26    1
    10     4    27    1
    11     5     7    1
    12     5    28    1
    13     5    29    1
    14     6     8    1
    15     6    30    1
    16     6    31    1
    17     7     9    1
    18     7    32    1
    19     7    33    1
    20     8    10    1
    21     8    34    1
    22     8    35    1
    23     9    11    1
    24     9    36    1
    25     9    37    1
    26    10    12    1
    27    10    38    1
    28    10    39    1
    29    11    13    1
    30    11    40    1
    31    11    41    1
    32    12    14    2
    33    12    42    1
    34    14    15    1
    35    14    43    1
    36    15    16    1
    37    15    44    1
    38    15    45    1
    39    16    17    2
    40    16    46    1
    41    17    19    1
    42    17    47    1
    43    18    48    1
    44    18    49    1
    45    18    50    1
    46    19    20    1
    47    19    51    1
    48    19    52    1
    49    20    21    2
    50    20    53    1
    51    21    22    1
    52    21    54    1
    53    22    23    1
    54    22    55    1
    55    22    56    1
    56    23    57    1
    57    23    58    1
    58    23    59    1
