@<TRIPOS>MOLECULE
IMPHY004487
 39 42 0 0 0
SMALL
GASTEIGER

@<TRIPOS>ATOM
      1 O           5.4920   -3.5571    0.0000 O.3     1  UNL1       -0.4815
      2 O           2.9273    0.0612    0.0000 O.2     1  UNL1       -0.4547
      3 O           2.0000   -3.5224    0.0000 O.3     1  UNL1       -0.5066
      4 O           2.7320    3.6055    0.0000 O.3     1  UNL1       -0.5066
      5 C           6.3981   -3.0432    0.0000 C.3     1  UNL1        0.1235
      6 C           4.5981   -2.0224    0.0000 C.ar    1  UNL1        0.0274
      7 C           4.5981   -3.0224    0.0000 C.ar    1  UNL1        0.1330
      8 C           6.3981   -2.0016    0.0000 C.2     1  UNL1       -0.0409
      9 C           3.7320   -1.5224    0.0000 C.ar    1  UNL1        0.0313
     10 C           5.4920   -1.4878    0.0000 C.2     1  UNL1       -0.0506
     11 C           7.3981   -3.0471    0.0000 C.3     1  UNL1       -0.0215
     12 C           6.8947   -3.9112    0.0000 C.3     1  UNL1       -0.0215
     13 C           3.7320   -0.5224    0.0000 C.ar    1  UNL1        0.1370
     14 C           3.7320   -3.5224    0.0000 C.ar    1  UNL1        0.0222
     15 C           2.8660   -2.0224    0.0000 C.ar    1  UNL1       -0.0087
     16 C           2.8660   -3.0224    0.0000 C.ar    1  UNL1        0.1210
     17 C           4.5368    0.0612    0.0000 C.ar    1  UNL1       -0.0081
     18 C           4.2320    1.0074    0.0000 C.ar    1  UNL1        0.0210
     19 C           3.2320    1.0074    0.0000 C.ar    1  UNL1        0.1391
     20 C           4.7320    1.8734    0.0000 C.ar    1  UNL1       -0.0475
     21 C           2.7320    1.8734    0.0000 C.ar    1  UNL1        0.0227
     22 C           3.2320    2.7395    0.0000 C.ar    1  UNL1        0.1204
     23 C           4.2320    2.7395    0.0000 C.ar    1  UNL1       -0.0194
     24 H           6.9338   -1.6895    0.0000 H       1  UNL1        0.0611
     25 H           5.4848   -0.8678    0.0000 H       1  UNL1        0.0623
     26 H           7.3957   -3.6671    0.0000 H       1  UNL1        0.0271
     27 H           8.0181   -3.0495    0.0000 H       1  UNL1        0.0271
     28 H           6.3566   -4.2191    0.0000 H       1  UNL1        0.0271
     29 H           7.2027   -4.4493    0.0000 H       1  UNL1        0.0271
     30 H           7.4329   -3.6032    0.0000 H       1  UNL1        0.0271
     31 H           7.4005   -2.4271    0.0000 H       1  UNL1        0.0271
     32 H           3.7320   -4.1424    0.0000 H       1  UNL1        0.0691
     33 H           2.3291   -1.7124    0.0000 H       1  UNL1        0.0661
     34 H           5.1261   -0.1314    0.0000 H       1  UNL1        0.0661
     35 H           5.3520    1.8734    0.0000 H       1  UNL1        0.0626
     36 H           2.1120    1.8734    0.0000 H       1  UNL1        0.0691
     37 H           4.5420    3.2764    0.0000 H       1  UNL1        0.0654
     38 H           2.0000   -4.1424    0.0000 H       1  UNL1        0.2921
     39 H           3.0420    4.1424    0.0000 H       1  UNL1        0.2921
@<TRIPOS>BOND
     1     1     5    1
     2     1     7    1
     3     2    13   ar
     4     2    19   ar
     5     3    16    1
     6     3    38    1
     7     4    22    1
     8     4    39    1
     9     5     8    1
    10     5    11    1
    11     5    12    1
    12     6     7   ar
    13     6     9   ar
    14     6    10    1
    15     7    14   ar
    16     8    10    2
    17     8    24    1
    18     9    13    1
    19     9    15   ar
    20    10    25    1
    21    11    26    1
    22    11    27    1
    23    11    31    1
    24    12    28    1
    25    12    29    1
    26    12    30    1
    27    13    17   ar
    28    14    16   ar
    29    14    32    1
    30    15    16   ar
    31    15    33    1
    32    17    18   ar
    33    17    34    1
    34    18    19   ar
    35    18    20   ar
    36    19    21   ar
    37    20    23   ar
    38    20    35    1
    39    21    22   ar
    40    21    36    1
    41    22    23   ar
    42    23    37    1
