@<TRIPOS>MOLECULE
IMPHY008169
 85 91 0 0 0
SMALL
GASTEIGER

@<TRIPOS>ATOM
      1 O           5.5268    1.4109    0.0000 O.3     1  UNL1       -0.4519
      2 O           7.2341   -2.2206    0.0000 O.3     1  UNL1       -0.4487
      3 O           3.5436    4.3601    0.0000 O.3     1  UNL1       -0.4913
      4 O           3.5436    2.3669    0.0000 O.3     1  UNL1       -0.5009
      5 O           7.4368   -4.3747    0.0000 O.3     1  UNL1       -0.4914
      6 O           8.7228   -2.0356    0.0000 O.3     1  UNL1       -0.4914
      7 N           7.8502    2.8669    0.0000 N.3     1  UNL1       -0.2977
      8 N           2.9386   -3.6377    0.0000 N.3     1  UNL1       -0.2978
      9 C           6.9900    2.3703    0.0000 C.3     1  UNL1        0.0432
     10 C           3.7015   -3.0017    0.0000 C.3     1  UNL1        0.0397
     11 C           6.1299    2.8669    0.0000 C.ar    1  UNL1        0.0193
     12 C           7.8502    3.8601    0.0000 C.3     1  UNL1        0.0032
     13 C           6.9900    4.3567    0.0000 C.3     1  UNL1       -0.0143
     14 C           6.1299    3.8601    0.0000 C.ar    1  UNL1       -0.0343
     15 C           4.6337   -3.3444    0.0000 C.ar    1  UNL1       -0.0231
     16 C           6.7330    1.4109    0.0000 C.3     1  UNL1       -0.0076
     17 C           3.1080   -4.6164    0.0000 C.3     1  UNL1        0.0032
     18 C           4.0402   -4.9591    0.0000 C.3     1  UNL1       -0.0144
     19 C           4.8030   -4.3231    0.0000 C.ar    1  UNL1       -0.0378
     20 C           3.5404   -2.0297    0.0000 C.3     1  UNL1       -0.0079
     21 C           5.2697    2.3703    0.0000 C.ar    1  UNL1        0.1782
     22 C           8.7162    2.3669    0.0000 C.3     1  UNL1       -0.0122
     23 C           7.2296    0.5507    0.0000 C.ar    1  UNL1       -0.0419
     24 C           5.3966   -2.7084    0.0000 C.ar    1  UNL1       -0.0107
     25 C           5.2697    4.3567    0.0000 C.ar    1  UNL1       -0.0125
     26 C           4.0370   -1.1695    0.0000 C.ar    1  UNL1       -0.0453
     27 C           2.0000   -3.2927    0.0000 C.3     1  UNL1       -0.0122
     28 C           5.7353   -4.6657    0.0000 C.ar    1  UNL1       -0.0128
     29 C           4.4096    2.8669    0.0000 C.ar    1  UNL1        0.2020
     30 C           6.3288   -3.0510    0.0000 C.ar    1  UNL1        0.1703
     31 C           4.4096    3.8601    0.0000 C.ar    1  UNL1        0.1653
     32 C           6.4982   -4.0297    0.0000 C.ar    1  UNL1        0.1624
     33 C           6.7330   -0.3094    0.0000 C.ar    1  UNL1       -0.0124
     34 C           8.2228    0.5507    0.0000 C.ar    1  UNL1       -0.0548
     35 C           3.5404   -0.3094    0.0000 C.ar    1  UNL1       -0.0550
     36 C           5.0302   -1.1695    0.0000 C.ar    1  UNL1       -0.0550
     37 C           7.2296   -1.1695    0.0000 C.ar    1  UNL1        0.1702
     38 C           5.0302    0.5507    0.0000 C.ar    1  UNL1        0.1286
     39 C           4.0370    0.5507    0.0000 C.ar    1  UNL1       -0.0191
     40 C           5.5268   -0.3094    0.0000 C.ar    1  UNL1       -0.0191
     41 C           8.2228   -1.1695    0.0000 C.ar    1  UNL1        0.1621
     42 C           8.7194   -0.3094    0.0000 C.ar    1  UNL1       -0.0160
     43 C           3.5436    5.3601    0.0000 C.3     1  UNL1        0.0790
     44 C           7.6073   -5.3601    0.0000 C.3     1  UNL1        0.0790
     45 C           9.7228   -2.0356    0.0000 C.3     1  UNL1        0.0790
     46 H           7.4819    1.9928    0.0000 H       1  UNL1        0.0516
     47 H           3.1203   -2.7858    0.0000 H       1  UNL1        0.0515
     48 H           8.4607    3.7524    0.0000 H       1  UNL1        0.0430
     49 H           8.0622    4.4427    0.0000 H       1  UNL1        0.0430
     50 H           7.3885    4.8316    0.0000 H       1  UNL1        0.0326
     51 H           6.5915    4.8316    0.0000 H       1  UNL1        0.0326
     52 H           6.1960    1.7209    0.0000 H       1  UNL1        0.0332
     53 H           6.2945    0.9725    0.0000 H       1  UNL1        0.0332
     54 H           2.4880   -4.6144    0.0000 H       1  UNL1        0.0430
     55 H           2.9984   -5.2266    0.0000 H       1  UNL1        0.0430
     56 H           3.7285   -5.4950    0.0000 H       1  UNL1        0.0326
     57 H           4.5139   -5.3591    0.0000 H       1  UNL1        0.0326
     58 H           3.1164   -1.5772    0.0000 H       1  UNL1        0.0332
     59 H           2.9844   -2.3041    0.0000 H       1  UNL1        0.0332
     60 H           8.4062    1.8299    0.0000 H       1  UNL1        0.0391
     61 H           9.2531    2.0569    0.0000 H       1  UNL1        0.0391
     62 H           9.0262    2.9038    0.0000 H       1  UNL1        0.0391
     63 H           5.2908   -2.0975    0.0000 H       1  UNL1        0.0659
     64 H           5.2697    4.9767    0.0000 H       1  UNL1        0.0658
     65 H           2.2139   -2.7108    0.0000 H       1  UNL1        0.0391
     66 H           1.4181   -3.0788    0.0000 H       1  UNL1        0.0391
     67 H           1.7861   -3.8747    0.0000 H       1  UNL1        0.0391
     68 H           5.8410   -5.2766    0.0000 H       1  UNL1        0.0658
     69 H           6.1130   -0.3094    0.0000 H       1  UNL1        0.0658
     70 H           8.5328    1.0877    0.0000 H       1  UNL1        0.0621
     71 H           2.9204   -0.3094    0.0000 H       1  UNL1        0.0621
     72 H           5.3402   -1.7065    0.0000 H       1  UNL1        0.0621
     73 H           3.7270    1.0877    0.0000 H       1  UNL1        0.0654
     74 H           6.1468   -0.3094    0.0000 H       1  UNL1        0.0654
     75 H           9.3394   -0.3094    0.0000 H       1  UNL1        0.0655
     76 H           3.0066    2.6769    0.0000 H       1  UNL1        0.2924
     77 H           4.1636    5.3601    0.0000 H       1  UNL1        0.0660
     78 H           3.5436    5.9801    0.0000 H       1  UNL1        0.0660
     79 H           2.9236    5.3601    0.0000 H       1  UNL1        0.0660
     80 H           6.9964   -5.4658    0.0000 H       1  UNL1        0.0660
     81 H           7.7130   -5.9710    0.0000 H       1  UNL1        0.0660
     82 H           8.2182   -5.2543    0.0000 H       1  UNL1        0.0660
     83 H           9.7228   -2.6556    0.0000 H       1  UNL1        0.0660
     84 H          10.3428   -2.0356    0.0000 H       1  UNL1        0.0660
     85 H           9.7228   -1.4156    0.0000 H       1  UNL1        0.0660
@<TRIPOS>BOND
     1     1    21    1
     2     1    38    1
     3     2    30    1
     4     2    37    1
     5     3    31    1
     6     3    43    1
     7     4    29    1
     8     4    76    1
     9     5    32    1
    10     5    44    1
    11     6    41    1
    12     6    45    1
    13     7     9    1
    14     7    12    1
    15     7    22    1
    16     8    10    1
    17     8    17    1
    18     8    27    1
    19     9    11    1
    20     9    16    1
    21     9    46    1
    22    10    15    1
    23    10    20    1
    24    10    47    1
    25    11    14   ar
    26    11    21   ar
    27    12    13    1
    28    12    48    1
    29    12    49    1
    30    13    14    1
    31    13    50    1
    32    13    51    1
    33    14    25   ar
    34    15    19   ar
    35    15    24   ar
    36    16    23    1
    37    16    52    1
    38    16    53    1
    39    17    18    1
    40    17    54    1
    41    17    55    1
    42    18    19    1
    43    18    56    1
    44    18    57    1
    45    19    28   ar
    46    20    26    1
    47    20    58    1
    48    20    59    1
    49    21    29   ar
    50    22    60    1
    51    22    61    1
    52    22    62    1
    53    23    33   ar
    54    23    34   ar
    55    24    30   ar
    56    24    63    1
    57    25    31   ar
    58    25    64    1
    59    26    35   ar
    60    26    36   ar
    61    27    65    1
    62    27    66    1
    63    27    67    1
    64    28    32   ar
    65    28    68    1
    66    29    31   ar
    67    30    32   ar
    68    33    37   ar
    69    33    69    1
    70    34    42   ar
    71    34    70    1
    72    35    39   ar
    73    35    71    1
    74    36    40   ar
    75    36    72    1
    76    37    41   ar
    77    38    39   ar
    78    38    40   ar
    79    39    73    1
    80    40    74    1
    81    41    42   ar
    82    42    75    1
    83    43    77    1
    84    43    78    1
    85    43    79    1
    86    44    80    1
    87    44    81    1
    88    44    82    1
    89    45    83    1
    90    45    84    1
    91    45    85    1
