@<TRIPOS>MOLECULE
IMPHY015690
 23 24 0 0 0
SMALL
GASTEIGER

@<TRIPOS>ATOM
      1 O           4.7770    0.3291    0.0000 O.3     1  UNL1       -0.3645
      2 O           2.8090    1.0284    0.0000 O.2     1  UNL1       -0.4655
      3 O           6.8495   -1.3648    0.0000 O.2     1  UNL1       -0.4655
      4 C           4.5691    1.3072    0.0000 C.3     1  UNL1        0.1059
      5 C           5.7281    0.0200    0.0000 C.3     1  UNL1        0.1059
      6 C           3.6180    1.6162    0.0000 C.ar    1  UNL1        0.1303
      7 C           5.9360   -0.9581    0.0000 C.ar    1  UNL1        0.1303
      8 C           3.3090    2.5673    0.0000 C.ar    1  UNL1       -0.0184
      9 C           5.2668   -1.7012    0.0000 C.ar    1  UNL1       -0.0184
     10 C           2.3090    2.5673    0.0000 C.ar    1  UNL1       -0.0236
     11 C           5.7668   -2.5673    0.0000 C.ar    1  UNL1       -0.0236
     12 C           2.0000    1.6162    0.0000 C.ar    1  UNL1        0.0922
     13 C           6.7450   -2.3594    0.0000 C.ar    1  UNL1        0.0922
     14 H           5.1887    1.3288    0.0000 H       1  UNL1        0.0641
     15 H           4.6554    1.9212    0.0000 H       1  UNL1        0.0641
     16 H           6.3477    0.0417    0.0000 H       1  UNL1        0.0641
     17 H           5.8144    0.6340    0.0000 H       1  UNL1        0.0641
     18 H           3.6734    3.0689    0.0000 H       1  UNL1        0.0653
     19 H           4.6502   -1.6364    0.0000 H       1  UNL1        0.0653
     20 H           1.9446    3.0689    0.0000 H       1  UNL1        0.0649
     21 H           5.5147   -3.1337    0.0000 H       1  UNL1        0.0649
     22 H           1.4103    1.4246    0.0000 H       1  UNL1        0.1029
     23 H           7.2057   -2.7742    0.0000 H       1  UNL1        0.1029
@<TRIPOS>BOND
     1     1     4    1
     2     1     5    1
     3     2     6   ar
     4     2    12   ar
     5     3     7   ar
     6     3    13   ar
     7     4     6    1
     8     4    14    1
     9     4    15    1
    10     5     7    1
    11     5    16    1
    12     5    17    1
    13     6     8   ar
    14     7     9   ar
    15     8    10   ar
    16     8    18    1
    17     9    11   ar
    18     9    19    1
    19    10    12   ar
    20    10    20    1
    21    11    13   ar
    22    11    21    1
    23    12    22    1
    24    13    23    1
