@<TRIPOS>MOLECULE
IMPHY012975
 83 86 0 0 0
SMALL
GASTEIGER

@<TRIPOS>ATOM
      1 O           9.7942   -2.8450    0.0000 O.3     1  UNL1       -0.3389
      2 O           9.7942    0.1550    0.0000 O.3     1  UNL1       -0.3394
      3 O          11.5263   -2.8450    0.0000 O.3     1  UNL1       -0.3431
      4 O           8.0622   -1.8450    0.0000 O.3     1  UNL1       -0.4528
      5 O          11.5263    0.1550    0.0000 O.3     1  UNL1       -0.3484
      6 O          11.5263   -1.8450    0.0000 O.3     1  UNL1       -0.3841
      7 O           9.7942   -4.8450    0.0000 O.3     1  UNL1       -0.3841
      8 O          11.5263   -5.8450    0.0000 O.3     1  UNL1       -0.3864
      9 O          13.2583   -4.8450    0.0000 O.3     1  UNL1       -0.3866
     10 O           8.0622    1.1550    0.0000 O.3     1  UNL1       -0.3923
     11 O           7.1962   -0.3450    0.0000 O.2     1  UNL1       -0.2456
     12 O          14.1244    4.6550    0.0000 O.3     1  UNL1       -0.5033
     13 O          12.3923    5.6550    0.0000 O.3     1  UNL1       -0.4915
     14 O           2.0000   -1.3450    0.0000 O.3     1  UNL1       -0.5033
     15 O           2.0000   -3.3450    0.0000 O.3     1  UNL1       -0.5033
     16 C           9.7942   -1.8450    0.0000 C.3     1  UNL1        0.1316
     17 C           8.9282   -1.3450    0.0000 C.3     1  UNL1        0.1602
     18 C          10.6603   -1.3450    0.0000 C.3     1  UNL1        0.1355
     19 C           8.9282   -0.3450    0.0000 C.3     1  UNL1        0.1240
     20 C          10.6603   -3.3450    0.0000 C.3     1  UNL1        0.1884
     21 C          10.6603   -4.3450    0.0000 C.3     1  UNL1        0.1341
     22 C          10.6603   -0.3450    0.0000 C.3     1  UNL1        0.1880
     23 C          11.5263   -4.8450    0.0000 C.3     1  UNL1        0.1140
     24 C          12.3923   -4.3450    0.0000 C.3     1  UNL1        0.1095
     25 C          12.3923   -3.3450    0.0000 C.3     1  UNL1        0.0873
     26 C           8.0622    0.1550    0.0000 C.3     1  UNL1        0.0741
     27 C          13.2583   -2.8450    0.0000 C.3     1  UNL1       -0.0361
     28 C          11.5263    1.1550    0.0000 C.3     1  UNL1        0.0547
     29 C           7.1962   -1.3450    0.0000 C.2     1  UNL1        0.3324
     30 C          12.3923    1.6550    0.0000 C.3     1  UNL1       -0.0039
     31 C           6.3301   -1.8450    0.0000 C.2     1  UNL1        0.0231
     32 C          12.3923    2.6550    0.0000 C.ar    1  UNL1       -0.0415
     33 C           5.4641   -1.3450    0.0000 C.2     1  UNL1       -0.0477
     34 C          13.2583    3.1550    0.0000 C.ar    1  UNL1       -0.0133
     35 C          11.5263    3.1550    0.0000 C.ar    1  UNL1       -0.0548
     36 C          13.2583    4.1550    0.0000 C.ar    1  UNL1        0.1587
     37 C          11.5263    4.1550    0.0000 C.ar    1  UNL1       -0.0161
     38 C           4.5981   -1.8450    0.0000 C.ar    1  UNL1       -0.0211
     39 C          12.3923    4.6550    0.0000 C.ar    1  UNL1        0.1613
     40 C           3.7320   -1.3450    0.0000 C.ar    1  UNL1       -0.0094
     41 C           4.5981   -2.8450    0.0000 C.ar    1  UNL1       -0.0509
     42 C           2.8660   -1.8450    0.0000 C.ar    1  UNL1        0.1588
     43 C           3.7320   -3.3450    0.0000 C.ar    1  UNL1       -0.0160
     44 C           2.8660   -2.8450    0.0000 C.ar    1  UNL1        0.1582
     45 C          11.5263    6.1550    0.0000 C.3     1  UNL1        0.0790
     46 H          10.3312   -2.1550    0.0000 H       1  UNL1        0.0663
     47 H           8.9282   -1.9650    0.0000 H       1  UNL1        0.0788
     48 H          10.6603   -1.9650    0.0000 H       1  UNL1        0.0671
     49 H           8.9282    0.2750    0.0000 H       1  UNL1        0.0658
     50 H          10.6603   -2.7250    0.0000 H       1  UNL1        0.0938
     51 H          10.6603   -4.9650    0.0000 H       1  UNL1        0.0671
     52 H          11.1972   -0.6550    0.0000 H       1  UNL1        0.0937
     53 H          12.0632   -5.1550    0.0000 H       1  UNL1        0.0648
     54 H          12.9292   -4.0350    0.0000 H       1  UNL1        0.0646
     55 H          12.3923   -2.7250    0.0000 H       1  UNL1        0.0621
     56 H           7.4516    0.2627    0.0000 H       1  UNL1        0.0584
     57 H           7.8501   -0.4276    0.0000 H       1  UNL1        0.0584
     58 H          13.5683   -3.3819    0.0000 H       1  UNL1        0.0255
     59 H          13.7953   -2.5350    0.0000 H       1  UNL1        0.0255
     60 H          12.9483   -2.3081    0.0000 H       1  UNL1        0.0255
     61 H          12.0632   -1.5350    0.0000 H       1  UNL1        0.2101
     62 H           9.7942   -5.4650    0.0000 H       1  UNL1        0.2101
     63 H          12.0632   -6.1550    0.0000 H       1  UNL1        0.2100
     64 H          13.7953   -4.5350    0.0000 H       1  UNL1        0.2100
     65 H          11.3142    1.7376    0.0000 H       1  UNL1        0.0564
     66 H          10.9157    1.0473    0.0000 H       1  UNL1        0.0564
     67 H           7.5252    1.4650    0.0000 H       1  UNL1        0.2095
     68 H          12.6044    1.0724    0.0000 H       1  UNL1        0.0335
     69 H          13.0029    1.7627    0.0000 H       1  UNL1        0.0335
     70 H           6.3301   -2.4650    0.0000 H       1  UNL1        0.0689
     71 H           5.4641   -0.7250    0.0000 H       1  UNL1        0.0626
     72 H          13.7953    2.8450    0.0000 H       1  UNL1        0.0658
     73 H          10.9893    2.8450    0.0000 H       1  UNL1        0.0621
     74 H          10.9893    4.4650    0.0000 H       1  UNL1        0.0655
     75 H           3.7320   -0.7250    0.0000 H       1  UNL1        0.0661
     76 H           5.1350   -3.1550    0.0000 H       1  UNL1        0.0625
     77 H          14.6613    4.3450    0.0000 H       1  UNL1        0.2923
     78 H           3.7320   -3.9650    0.0000 H       1  UNL1        0.0655
     79 H          11.8363    6.6919    0.0000 H       1  UNL1        0.0660
     80 H          10.9893    6.4650    0.0000 H       1  UNL1        0.0660
     81 H          11.2163    5.6181    0.0000 H       1  UNL1        0.0660
     82 H           2.0000   -0.7250    0.0000 H       1  UNL1        0.2923
     83 H           2.0000   -3.9650    0.0000 H       1  UNL1        0.2923
@<TRIPOS>BOND
     1    16     1    1
     2    20     1    1
     3     2    19    1
     4     2    22    1
     5     3    20    1
     6     3    25    1
     7    17     4    1
     8     4    29    1
     9    22     5    1
    10     5    28    1
    11    18     6    1
    12     6    61    1
    13    21     7    1
    14     7    62    1
    15    23     8    1
    16     8    63    1
    17    24     9    1
    18     9    64    1
    19    10    26    1
    20    10    67    1
    21    11    29    2
    22    12    36    1
    23    12    77    1
    24    13    39    1
    25    13    45    1
    26    14    42    1
    27    14    82    1
    28    15    44    1
    29    15    83    1
    30    16    17    1
    31    16    18    1
    32    16    46    1
    33    17    19    1
    34    17    47    1
    35    18    22    1
    36    18    48    1
    37    19    26    1
    38    19    49    1
    39    20    21    1
    40    20    50    1
    41    21    23    1
    42    21    51    1
    43    22    52    1
    44    23    24    1
    45    23    53    1
    46    24    25    1
    47    24    54    1
    48    25    27    1
    49    25    55    1
    50    26    56    1
    51    26    57    1
    52    27    58    1
    53    27    59    1
    54    27    60    1
    55    28    30    1
    56    28    65    1
    57    28    66    1
    58    29    31    1
    59    30    32    1
    60    30    68    1
    61    30    69    1
    62    31    33    2
    63    31    70    1
    64    32    34   ar
    65    32    35   ar
    66    33    38    1
    67    33    71    1
    68    34    36   ar
    69    34    72    1
    70    35    37   ar
    71    35    73    1
    72    36    39   ar
    73    37    39   ar
    74    37    74    1
    75    38    40   ar
    76    38    41   ar
    77    40    42   ar
    78    40    75    1
    79    41    43   ar
    80    41    76    1
    81    42    44   ar
    82    43    44   ar
    83    43    78    1
    84    45    79    1
    85    45    80    1
    86    45    81    1
