@<TRIPOS>MOLECULE
IMPHY013610
 84 89 0 0 0
SMALL
GASTEIGER

@<TRIPOS>ATOM
      1 O           9.9787   -0.2823    0.0000 O.3     1  UNL1       -0.3727
      2 O           2.0000    2.3442    0.0000 O.2     1  UNL1       -0.2968
      3 O          12.2652   -3.1693    0.0000 O.3     1  UNL1       -0.3888
      4 C           5.5301    0.3201    0.0000 C.3     1  UNL1       -0.0194
      5 C           4.6641    0.8201    0.0000 C.3     1  UNL1       -0.0187
      6 C           6.3961    0.8201    0.0000 C.3     1  UNL1       -0.0288
      7 C           4.6638   -0.1804    0.0000 C.3     1  UNL1       -0.0401
      8 C           7.3062    0.3132    0.0000 C.3     1  UNL1       -0.0206
      9 C           4.6641    1.8201    0.0000 C.3     1  UNL1       -0.0230
     10 C           7.3142   -0.7284    0.0000 C.3     1  UNL1       -0.0209
     11 C           5.5141   -0.7214    0.0000 C.3     1  UNL1       -0.0460
     12 C           6.3961    1.8201    0.0000 C.3     1  UNL1       -0.0489
     13 C           3.7702    0.2854    0.0000 C.3     1  UNL1       -0.0399
     14 C           6.4121   -1.2492    0.0000 C.3     1  UNL1       -0.0462
     15 C           5.5301    2.3201    0.0000 C.3     1  UNL1       -0.0485
     16 C           8.3022   -1.0382    0.0000 C.3     1  UNL1       -0.0061
     17 C           8.2893    0.6382    0.0000 C.3     1  UNL1       -0.0201
     18 C           3.7702    2.3547    0.0000 C.3     1  UNL1        0.0267
     19 C           8.9036   -0.1953    0.0000 C.3     1  UNL1        0.0631
     20 C           7.2984    1.3132    0.0000 C.3     1  UNL1       -0.0587
     21 C           2.8641    0.7992    0.0000 C.3     1  UNL1        0.0069
     22 C           7.3219   -1.7284    0.0000 C.3     1  UNL1       -0.0587
     23 C           8.7342   -2.0265    0.0000 C.3     1  UNL1       -0.0358
     24 C           2.8641    1.8409    0.0000 C.2     1  UNL1        0.1392
     25 C           3.2802    3.2265    0.0000 C.3     1  UNL1       -0.0528
     26 C           4.2801    3.2149    0.0000 C.3     1  UNL1       -0.0528
     27 C           9.8069   -2.1383    0.0000 C.3     1  UNL1       -0.0233
     28 C          10.4334   -1.2603    0.0000 C.3     1  UNL1        0.0645
     29 C           8.1440   -2.8338    0.0000 C.3     1  UNL1       -0.0620
     30 C          11.4291   -1.3525    0.0000 C.3     1  UNL1        0.0108
     31 C          11.8472   -2.2609    0.0000 C.3     1  UNL1        0.0654
     32 C          12.0068   -0.5362    0.0000 C.3     1  UNL1       -0.0575
     33 C          12.7556   -1.8428    0.0000 C.3     1  UNL1       -0.0360
     34 C          10.9388   -2.6790    0.0000 C.3     1  UNL1       -0.0360
     35 H           7.1290    1.2507    0.0000 H       1  UNL1        0.0312
     36 H           4.0532   -0.2880    0.0000 H       1  UNL1        0.0276
     37 H           4.8759   -0.7630    0.0000 H       1  UNL1        0.0276
     38 H           4.6706    2.6700    0.0000 H       1  UNL1        0.0316
     39 H           4.9049   -0.6060    0.0000 H       1  UNL1        0.0271
     40 H           5.2960   -1.3018    0.0000 H       1  UNL1        0.0271
     41 H           7.0067    1.7124    0.0000 H       1  UNL1        0.0268
     42 H           6.6082    2.4027    0.0000 H       1  UNL1        0.0268
     43 H           3.3765   -0.1936    0.0000 H       1  UNL1        0.0275
     44 H           4.1748   -0.1844    0.0000 H       1  UNL1        0.0275
     45 H           6.0111   -1.7221    0.0000 H       1  UNL1        0.0271
     46 H           6.8094   -1.7252    0.0000 H       1  UNL1        0.0271
     47 H           5.9286    2.7950    0.0000 H       1  UNL1        0.0268
     48 H           5.1316    2.7950    0.0000 H       1  UNL1        0.0268
     49 H           7.7345   -1.6709    0.0000 H       1  UNL1        0.0334
     50 H           8.8243    0.9516    0.0000 H       1  UNL1        0.0296
     51 H           8.0339    1.2032    0.0000 H       1  UNL1        0.0296
     52 H           9.3172    0.5473    0.0000 H       1  UNL1        0.0599
     53 H           7.9184    1.3180    0.0000 H       1  UNL1        0.0235
     54 H           7.2937    1.9332    0.0000 H       1  UNL1        0.0235
     55 H           6.6785    1.3084    0.0000 H       1  UNL1        0.0235
     56 H           2.2532    0.9053    0.0000 H       1  UNL1        0.0342
     57 H           2.6550    0.2156    0.0000 H       1  UNL1        0.0342
     58 H           6.7019   -1.7331    0.0000 H       1  UNL1        0.0235
     59 H           7.3267   -2.3483    0.0000 H       1  UNL1        0.0235
     60 H           7.9419   -1.7236    0.0000 H       1  UNL1        0.0235
     61 H           8.9857   -2.5932    0.0000 H       1  UNL1        0.0303
     62 H           3.8207    3.5302    0.0000 H       1  UNL1        0.0239
     63 H           2.9764    3.7670    0.0000 H       1  UNL1        0.0239
     64 H           2.7397    2.9227    0.0000 H       1  UNL1        0.0239
     65 H           4.8134    2.8987    0.0000 H       1  UNL1        0.0239
     66 H           4.5963    3.7482    0.0000 H       1  UNL1        0.0239
     67 H           3.7468    3.5311    0.0000 H       1  UNL1        0.0239
     68 H           9.6381   -2.7349    0.0000 H       1  UNL1        0.0293
     69 H          10.3658   -2.4068    0.0000 H       1  UNL1        0.0293
     70 H          10.7906   -0.7536    0.0000 H       1  UNL1        0.0600
     71 H           7.6434   -2.4678    0.0000 H       1  UNL1        0.0233
     72 H           7.7780   -3.3343    0.0000 H       1  UNL1        0.0233
     73 H           8.6445   -3.1997    0.0000 H       1  UNL1        0.0233
     74 H          11.1699   -0.7893    0.0000 H       1  UNL1        0.0351
     75 H          12.5129   -0.8944    0.0000 H       1  UNL1        0.0234
     76 H          12.3650   -0.0301    0.0000 H       1  UNL1        0.0234
     77 H          11.5007   -0.1781    0.0000 H       1  UNL1        0.0234
     78 H          13.0148   -2.4061    0.0000 H       1  UNL1        0.0257
     79 H          13.3188   -1.5836    0.0000 H       1  UNL1        0.0257
     80 H          12.4964   -1.2796    0.0000 H       1  UNL1        0.0257
     81 H          10.6796   -2.1157    0.0000 H       1  UNL1        0.0257
     82 H          10.3755   -2.9382    0.0000 H       1  UNL1        0.0257
     83 H          11.1980   -3.2422    0.0000 H       1  UNL1        0.0257
     84 H          12.8826   -3.2265    0.0000 H       1  UNL1        0.2101
@<TRIPOS>BOND
     1     1    19    1
     2     1    28    1
     3     2    24    2
     4     3    31    1
     5     3    84    1
     6     4     5    1
     7     4     6    1
     8     4     7    1
     9     4    11    1
    10     5     7    1
    11     5     9    1
    12     5    13    1
    13     6     8    1
    14     6    12    1
    15     6    35    1
    16     7    36    1
    17     7    37    1
    18     8    10    1
    19     8    17    1
    20     8    20    1
    21     9    15    1
    22     9    18    1
    23     9    38    1
    24    10    14    1
    25    10    16    1
    26    10    22    1
    27    11    14    1
    28    11    39    1
    29    11    40    1
    30    12    15    1
    31    12    41    1
    32    12    42    1
    33    13    21    1
    34    13    43    1
    35    13    44    1
    36    14    45    1
    37    14    46    1
    38    15    47    1
    39    15    48    1
    40    16    19    1
    41    16    23    1
    42    16    49    1
    43    17    19    1
    44    17    50    1
    45    17    51    1
    46    18    24    1
    47    18    25    1
    48    18    26    1
    49    19    52    1
    50    20    53    1
    51    20    54    1
    52    20    55    1
    53    21    24    1
    54    21    56    1
    55    21    57    1
    56    22    58    1
    57    22    59    1
    58    22    60    1
    59    23    27    1
    60    23    29    1
    61    23    61    1
    62    25    62    1
    63    25    63    1
    64    25    64    1
    65    26    65    1
    66    26    66    1
    67    26    67    1
    68    27    28    1
    69    27    68    1
    70    27    69    1
    71    28    30    1
    72    28    70    1
    73    29    71    1
    74    29    72    1
    75    29    73    1
    76    30    31    1
    77    30    32    1
    78    30    74    1
    79    31    33    1
    80    31    34    1
    81    32    75    1
    82    32    76    1
    83    32    77    1
    84    33    78    1
    85    33    79    1
    86    33    80    1
    87    34    81    1
    88    34    82    1
    89    34    83    1
