@<TRIPOS>MOLECULE
IMPHY011488
 74 79 0 0 0
SMALL
GASTEIGER

@<TRIPOS>ATOM
      1 O           3.7998   -3.1250    0.0000 O.3     1  UNL1       -0.3611
      2 O           2.9176   -3.6592    0.0000 O.3     1  UNL1       -0.3888
      3 O           2.9176    0.4100    0.0000 O.2     1  UNL1       -0.2967
      4 O           9.0542    2.8286    0.0000 O.3     1  UNL1       -0.4574
      5 O          10.3522    3.9753    0.0000 O.2     1  UNL1       -0.2452
      6 O          11.9943    3.4246    0.0000 O.3     1  UNL1       -0.3902
      7 C           3.8000   -2.1246    0.0000 C.3     1  UNL1        0.1338
      8 C           5.5321   -1.1246    0.0000 C.3     1  UNL1       -0.0315
      9 C           3.8000   -1.1246    0.0000 C.3     1  UNL1        0.0630
     10 C           4.6660   -0.6246    0.0000 C.3     1  UNL1       -0.0229
     11 C           4.6660   -2.6246    0.0000 C.3     1  UNL1        0.0922
     12 C           6.4421   -0.6177    0.0000 C.3     1  UNL1       -0.0322
     13 C           6.4501    0.4239    0.0000 C.3     1  UNL1       -0.0258
     14 C           5.5321   -2.1246    0.0000 C.3     1  UNL1       -0.0203
     15 C           4.6500    0.4170    0.0000 C.3     1  UNL1       -0.0485
     16 C           7.4381    0.7337    0.0000 C.3     1  UNL1       -0.0294
     17 C           5.5480    0.9447    0.0000 C.3     1  UNL1       -0.0468
     18 C           2.9061   -2.6592    0.0000 C.3     1  UNL1        0.0879
     19 C           7.4252   -0.9427    0.0000 C.3     1  UNL1       -0.0492
     20 C           8.0396   -0.1092    0.0000 C.3     1  UNL1       -0.0491
     21 C           2.9061   -0.5899    0.0000 C.2     1  UNL1        0.1425
     22 C           3.8000   -0.1246    0.0000 C.3     1  UNL1       -0.0497
     23 C           2.0000   -2.1454    0.0000 C.3     1  UNL1       -0.0173
     24 C           6.4578    1.4239    0.0000 C.3     1  UNL1       -0.0590
     25 C           7.7561    1.6818    0.0000 C.3     1  UNL1       -0.0030
     26 C           2.0000   -1.1037    0.0000 C.3     1  UNL1        0.0089
     27 C           8.7362    1.8805    0.0000 C.3     1  UNL1        0.1099
     28 C           7.0940    2.4312    0.0000 C.3     1  UNL1       -0.0588
     29 C           9.3983    1.1310    0.0000 C.3     1  UNL1        0.0064
     30 C          10.3783    1.3297    0.0000 C.2     1  UNL1       -0.0570
     31 C          10.0342    3.0272    0.0000 C.2     1  UNL1        0.3376
     32 C          10.6963    2.2778    0.0000 C.2     1  UNL1        0.0608
     33 C          11.0404    0.5803    0.0000 C.3     1  UNL1       -0.0428
     34 C          11.6764    2.4765    0.0000 C.3     1  UNL1        0.0759
     35 H           6.2649   -1.5552    0.0000 H       1  UNL1        0.0307
     36 H           5.3989   -0.1939    0.0000 H       1  UNL1        0.0314
     37 H           5.0911   -3.3606    0.0000 H       1  UNL1        0.0626
     38 H           6.5222   -1.4639    0.0000 H       1  UNL1        0.0309
     39 H           5.7441   -2.7072    0.0000 H       1  UNL1        0.0294
     40 H           6.1426   -2.0169    0.0000 H       1  UNL1        0.0294
     41 H           4.4319    0.9974    0.0000 H       1  UNL1        0.0268
     42 H           4.0408    0.3015    0.0000 H       1  UNL1        0.0268
     43 H           8.2788    0.8591    0.0000 H       1  UNL1        0.0310
     44 H           5.9453    1.4207    0.0000 H       1  UNL1        0.0271
     45 H           5.1470    1.4176    0.0000 H       1  UNL1        0.0271
     46 H           2.3721   -2.9744    0.0000 H       1  UNL1        0.0623
     47 H           7.1698   -1.5077    0.0000 H       1  UNL1        0.0268
     48 H           7.9602   -1.2561    0.0000 H       1  UNL1        0.0268
     49 H           8.4972   -0.5275    0.0000 H       1  UNL1        0.0268
     50 H           8.5036    0.3020    0.0000 H       1  UNL1        0.0268
     51 H           4.4200   -0.1246    0.0000 H       1  UNL1        0.0240
     52 H           3.8000    0.4954    0.0000 H       1  UNL1        0.0240
     53 H           3.1800   -0.1246    0.0000 H       1  UNL1        0.0240
     54 H           1.3891   -2.0393    0.0000 H       1  UNL1        0.0295
     55 H           1.7909   -2.7291    0.0000 H       1  UNL1        0.0295
     56 H           7.0778    1.4191    0.0000 H       1  UNL1        0.0235
     57 H           6.4626    2.0438    0.0000 H       1  UNL1        0.0235
     58 H           5.8378    1.4286    0.0000 H       1  UNL1        0.0235
     59 H           7.9532    2.2696    0.0000 H       1  UNL1        0.0337
     60 H           1.7909   -0.5200    0.0000 H       1  UNL1        0.0343
     61 H           1.3891   -1.2098    0.0000 H       1  UNL1        0.0343
     62 H           2.3843   -3.9753    0.0000 H       1  UNL1        0.2099
     63 H           9.5692    2.0493    0.0000 H       1  UNL1        0.0740
     64 H           7.5587    2.8417    0.0000 H       1  UNL1        0.0234
     65 H           6.6835    2.8959    0.0000 H       1  UNL1        0.0234
     66 H           6.6294    2.0207    0.0000 H       1  UNL1        0.0234
     67 H           8.8694    0.8075    0.0000 H       1  UNL1        0.0346
     68 H           9.6251    0.5540    0.0000 H       1  UNL1        0.0346
     69 H          10.5758    0.1698    0.0000 H       1  UNL1        0.0275
     70 H          11.4509    0.1156    0.0000 H       1  UNL1        0.0275
     71 H          11.5051    0.9908    0.0000 H       1  UNL1        0.0275
     72 H          11.6922    1.8567    0.0000 H       1  UNL1        0.0609
     73 H          12.2895    2.3844    0.0000 H       1  UNL1        0.0609
     74 H          12.6020    3.5478    0.0000 H       1  UNL1        0.2099
@<TRIPOS>BOND
     1     7     1    1
     2     1    11    1
     3    18     2    1
     4     2    62    1
     5     3    21    2
     6     4    27    1
     7     4    31    1
     8     5    31    2
     9     6    34    1
    10     6    74    1
    11     7     9    1
    12     7    11    1
    13     7    18    1
    14     8    10    1
    15     8    12    1
    16     8    14    1
    17     8    35    1
    18     9    10    1
    19     9    21    1
    20     9    22    1
    21    10    15    1
    22    10    36    1
    23    11    14    1
    24    11    37    1
    25    12    13    1
    26    12    19    1
    27    12    38    1
    28    13    16    1
    29    13    17    1
    30    13    24    1
    31    14    39    1
    32    14    40    1
    33    15    17    1
    34    15    41    1
    35    15    42    1
    36    16    20    1
    37    16    25    1
    38    16    43    1
    39    17    44    1
    40    17    45    1
    41    18    23    1
    42    18    46    1
    43    19    20    1
    44    19    47    1
    45    19    48    1
    46    20    49    1
    47    20    50    1
    48    21    26    1
    49    22    51    1
    50    22    52    1
    51    22    53    1
    52    23    26    1
    53    23    54    1
    54    23    55    1
    55    24    56    1
    56    24    57    1
    57    24    58    1
    58    25    27    1
    59    25    28    1
    60    25    59    1
    61    26    60    1
    62    26    61    1
    63    27    29    1
    64    27    63    1
    65    28    64    1
    66    28    65    1
    67    28    66    1
    68    29    30    1
    69    29    67    1
    70    29    68    1
    71    30    32    2
    72    30    33    1
    73    31    32    1
    74    32    34    1
    75    33    69    1
    76    33    70    1
    77    33    71    1
    78    34    72    1
    79    34    73    1
