@<TRIPOS>MOLECULE
IMPHY008745
 38 40 0 0 0
SMALL
GASTEIGER

@<TRIPOS>ATOM
      1 O           3.5836    0.3977    0.0000 O.3     1  UNL1       -0.4569
      2 O           8.0321    0.0899    0.0000 O.3     1  UNL1       -0.3912
      3 O           2.0000   -0.4070    0.0000 O.2     1  UNL1       -0.2453
      4 C           6.2619    0.0930    0.0000 C.3     1  UNL1        0.0038
      5 C           5.3958    0.5930    0.0000 C.3     1  UNL1        0.0253
      6 C           4.5298    0.0930    0.0000 C.3     1  UNL1        0.1173
      7 C           6.2619   -0.9070    0.0000 C.3     1  UNL1       -0.0439
      8 C           4.5298   -0.9070    0.0000 C.3     1  UNL1        0.0280
      9 C           7.1719    0.5998    0.0000 C.3     1  UNL1        0.0615
     10 C           5.3958   -1.4070    0.0000 C.3     1  UNL1       -0.0420
     11 C           5.3798    1.6345    0.0000 C.2     1  UNL1       -0.0693
     12 C           7.1799    1.6414    0.0000 C.3     1  UNL1       -0.0226
     13 C           7.1279   -0.4070    0.0000 C.3     1  UNL1       -0.0565
     14 C           6.2778    2.1623    0.0000 C.3     1  UNL1       -0.0292
     15 C           3.5836   -1.2117    0.0000 C.2     1  UNL1        0.0361
     16 C           3.0000   -0.4070    0.0000 C.2     1  UNL1        0.3353
     17 C           4.5080    2.1245    0.0000 C.2     1  UNL1       -0.0990
     18 C           3.2729   -2.1623    0.0000 C.2     1  UNL1       -0.0883
     19 H           6.1287    1.0237    0.0000 H       1  UNL1        0.0388
     20 H           4.4399    0.9382    0.0000 H       1  UNL1        0.0746
     21 H           6.4739   -1.4896    0.0000 H       1  UNL1        0.0272
     22 H           6.8725   -0.7993    0.0000 H       1  UNL1        0.0272
     23 H           4.4399   -1.7522    0.0000 H       1  UNL1        0.0387
     24 H           7.7118    0.9047    0.0000 H       1  UNL1        0.0599
     25 H           4.9973   -1.8820    0.0000 H       1  UNL1        0.0272
     26 H           5.7944   -1.8820    0.0000 H       1  UNL1        0.0272
     27 H           7.7899    1.5306    0.0000 H       1  UNL1        0.0293
     28 H           7.3935    2.2235    0.0000 H       1  UNL1        0.0293
     29 H           6.8179   -0.9439    0.0000 H       1  UNL1        0.0236
     30 H           7.6648   -0.7170    0.0000 H       1  UNL1        0.0236
     31 H           7.4379    0.1299    0.0000 H       1  UNL1        0.0236
     32 H           6.6751    2.6382    0.0000 H       1  UNL1        0.0311
     33 H           5.8769    2.6352    0.0000 H       1  UNL1        0.0311
     34 H           8.5726    0.3936    0.0000 H       1  UNL1        0.2098
     35 H           4.5009    2.7444    0.0000 H       1  UNL1        0.0535
     36 H           3.9747    1.8083    0.0000 H       1  UNL1        0.0535
     37 H           2.6663   -2.2901    0.0000 H       1  UNL1        0.0540
     38 H           3.6870   -2.6237    0.0000 H       1  UNL1        0.0540
@<TRIPOS>BOND
     1     1     6    1
     2     1    16    1
     3     9     2    1
     4     2    34    1
     5     3    16    2
     6     4     5    1
     7     4     7    1
     8     4     9    1
     9     4    13    1
    10     5     6    1
    11     5    11    1
    12     5    19    1
    13     6     8    1
    14     6    20    1
    15     7    10    1
    16     7    21    1
    17     7    22    1
    18     8    10    1
    19     8    15    1
    20     8    23    1
    21     9    12    1
    22     9    24    1
    23    10    25    1
    24    10    26    1
    25    11    14    1
    26    11    17    2
    27    12    14    1
    28    12    27    1
    29    12    28    1
    30    13    29    1
    31    13    30    1
    32    13    31    1
    33    14    32    1
    34    14    33    1
    35    15    16    1
    36    15    18    2
    37    17    35    1
    38    17    36    1
    39    18    37    1
    40    18    38    1
