@<TRIPOS>MOLECULE
IMPHY012513
 98 100 0 0 0
SMALL
GASTEIGER

@<TRIPOS>ATOM
      1 O           6.8671    1.4050    0.0000 O.3     1  UNL1       -0.3408
      2 O           7.7331   -0.0950    0.0000 O.3     1  UNL1       -0.3412
      3 O           6.8671   -2.5950    0.0000 O.3     1  UNL1       -0.3402
      4 O           9.4651    1.9050    0.0000 O.3     1  UNL1       -0.3488
      5 O           5.1350   -1.5950    0.0000 O.3     1  UNL1       -0.3871
      6 O           5.1350   -2.5950    0.0000 O.3     1  UNL1       -0.3405
      7 O           6.8671    3.4050    0.0000 O.3     1  UNL1       -0.3871
      8 O           6.8671   -4.5950    0.0000 O.3     1  UNL1       -0.3841
      9 O           9.4651   -1.0950    0.0000 O.3     1  UNL1       -0.3924
     10 O           5.1350   -5.5950    0.0000 O.3     1  UNL1       -0.3864
     11 O           3.4030   -4.5950    0.0000 O.3     1  UNL1       -0.3865
     12 O           9.4651   -0.0950    0.0000 O.3     1  UNL1       -0.3924
     13 O           2.5369   -3.0950    0.0000 O.3     1  UNL1       -0.3924
     14 O           6.0010    1.9050    0.0000 O.2     1  UNL1       -0.2761
     15 O           6.8671    4.4050    0.0000 O.2     1  UNL1       -0.2761
     16 O          11.1972    1.9050    0.0000 O.2     1  UNL1       -0.2757
     17 O          12.0632    1.4050    0.0000 O.2     1  UNL1       -0.2740
     18 O          12.9292    4.9050    0.0000 O.2     1  UNL1       -0.2761
     19 N           5.1350    0.4050    0.0000 N.am    1  UNL1       -0.3053
     20 N           8.5991    4.4050    0.0000 N.am    1  UNL1       -0.3060
     21 N          10.3312    3.4050    0.0000 N.am    1  UNL1       -0.2884
     22 N          13.7953    3.4050    0.0000 N.am    1  UNL1       -0.3038
     23 N          13.7953    1.4050    0.0000 N.am    1  UNL1       -0.3278
     24 C           6.0010   -0.0950    0.0000 C.3     1  UNL1        0.1023
     25 C           6.8671   -1.5950    0.0000 C.3     1  UNL1        0.1177
     26 C           6.0010   -1.0950    0.0000 C.3     1  UNL1        0.1069
     27 C           7.7331    1.9050    0.0000 C.3     1  UNL1        0.1176
     28 C           6.8671    0.4050    0.0000 C.3     1  UNL1        0.1808
     29 C           7.7331   -1.0950    0.0000 C.3     1  UNL1        0.1133
     30 C           7.7331    2.9050    0.0000 C.3     1  UNL1        0.1061
     31 C           8.5991    3.4050    0.0000 C.3     1  UNL1        0.0942
     32 C           8.5991    1.4050    0.0000 C.3     1  UNL1        0.1126
     33 C           9.4651    2.9050    0.0000 C.3     1  UNL1        0.1461
     34 C           6.0010   -3.0950    0.0000 C.3     1  UNL1        0.1884
     35 C           6.0010   -4.0950    0.0000 C.3     1  UNL1        0.1341
     36 C           8.5991   -1.5950    0.0000 C.3     1  UNL1        0.0730
     37 C           5.1350   -4.5950    0.0000 C.3     1  UNL1        0.1141
     38 C           4.2690   -4.0950    0.0000 C.3     1  UNL1        0.1119
     39 C           8.5991    0.4050    0.0000 C.3     1  UNL1        0.0730
     40 C           4.2690   -3.0950    0.0000 C.3     1  UNL1        0.1130
     41 C           3.4030   -2.5950    0.0000 C.3     1  UNL1        0.0730
     42 C           5.1350    1.4050    0.0000 C.2     1  UNL1        0.2104
     43 C           7.7331    4.9050    0.0000 C.2     1  UNL1        0.2103
     44 C          11.1972    2.9050    0.0000 C.2     1  UNL1        0.2172
     45 C           4.2690    1.9050    0.0000 C.3     1  UNL1        0.0122
     46 C          12.0632    3.4050    0.0000 C.3     1  UNL1        0.0509
     47 C           7.7331    5.9050    0.0000 C.3     1  UNL1        0.0122
     48 C          12.9292    2.9050    0.0000 C.3     1  UNL1        0.1073
     49 C          12.9292    1.9050    0.0000 C.2     1  UNL1        0.2313
     50 C          13.7953    4.4050    0.0000 C.2     1  UNL1        0.2105
     51 C          14.6613    4.9050    0.0000 C.3     1  UNL1        0.0122
     52 H           6.0010    0.5250    0.0000 H       1  UNL1        0.0575
     53 H           7.4040   -1.9050    0.0000 H       1  UNL1        0.0650
     54 H           6.0010   -1.7150    0.0000 H       1  UNL1        0.0640
     55 H           7.1962    2.2150    0.0000 H       1  UNL1        0.0650
     56 H           6.3301    0.7150    0.0000 H       1  UNL1        0.0930
     57 H           8.2700   -0.7850    0.0000 H       1  UNL1        0.0647
     58 H           7.7331    3.5250    0.0000 H       1  UNL1        0.0640
     59 H           9.1360    3.7150    0.0000 H       1  UNL1        0.0567
     60 H           9.1360    1.0950    0.0000 H       1  UNL1        0.0647
     61 H           9.4651    3.5250    0.0000 H       1  UNL1        0.0827
     62 H           6.0010   -2.4750    0.0000 H       1  UNL1        0.0938
     63 H           6.0010   -4.7150    0.0000 H       1  UNL1        0.0671
     64 H           8.2006   -2.0700    0.0000 H       1  UNL1        0.0584
     65 H           8.9976   -2.0700    0.0000 H       1  UNL1        0.0584
     66 H           4.5981    0.0950    0.0000 H       1  UNL1        0.1492
     67 H           4.5981   -4.9050    0.0000 H       1  UNL1        0.0648
     68 H           4.2690   -4.7150    0.0000 H       1  UNL1        0.0647
     69 H           7.9885    0.5127    0.0000 H       1  UNL1        0.0584
     70 H           8.3871   -0.1776    0.0000 H       1  UNL1        0.0584
     71 H           4.2690   -2.4750    0.0000 H       1  UNL1        0.0647
     72 H           9.1360    4.7150    0.0000 H       1  UNL1        0.1492
     73 H           4.5981   -1.2850    0.0000 H       1  UNL1        0.2100
     74 H          10.3312    4.0250    0.0000 H       1  UNL1        0.1512
     75 H           6.3301    3.0950    0.0000 H       1  UNL1        0.2100
     76 H           3.8015   -2.1200    0.0000 H       1  UNL1        0.0584
     77 H           3.0044   -2.1200    0.0000 H       1  UNL1        0.0584
     78 H           7.4040   -4.2850    0.0000 H       1  UNL1        0.2101
     79 H          10.0021   -1.4050    0.0000 H       1  UNL1        0.2095
     80 H           5.6720   -5.9050    0.0000 H       1  UNL1        0.2100
     81 H           3.4030   -5.2150    0.0000 H       1  UNL1        0.2100
     82 H          10.0021    0.2150    0.0000 H       1  UNL1        0.2095
     83 H           4.5790    2.4419    0.0000 H       1  UNL1        0.0322
     84 H           3.7320    2.2150    0.0000 H       1  UNL1        0.0322
     85 H           3.9590    1.3681    0.0000 H       1  UNL1        0.0322
     86 H          12.4617    3.8800    0.0000 H       1  UNL1        0.0381
     87 H          11.6647    3.8800    0.0000 H       1  UNL1        0.0381
     88 H           8.3531    5.9050    0.0000 H       1  UNL1        0.0322
     89 H           7.7331    6.5250    0.0000 H       1  UNL1        0.0322
     90 H           7.1131    5.9050    0.0000 H       1  UNL1        0.0322
     91 H           2.0000   -2.7850    0.0000 H       1  UNL1        0.2095
     92 H          13.4662    2.5950    0.0000 H       1  UNL1        0.0599
     93 H          14.3322    3.0950    0.0000 H       1  UNL1        0.1495
     94 H          13.7953    0.7850    0.0000 H       1  UNL1        0.1450
     95 H          14.3322    1.7150    0.0000 H       1  UNL1        0.1450
     96 H          14.9713    4.3681    0.0000 H       1  UNL1        0.0322
     97 H          15.1982    5.2150    0.0000 H       1  UNL1        0.0322
     98 H          14.3513    5.4419    0.0000 H       1  UNL1        0.0322
@<TRIPOS>BOND
     1    27     1    1
     2    28     1    1
     3     2    28    1
     4     2    29    1
     5    25     3    1
     6    34     3    1
     7     4    32    1
     8     4    33    1
     9    26     5    1
    10     5    73    1
    11     6    34    1
    12     6    40    1
    13    30     7    1
    14     7    75    1
    15    35     8    1
    16     8    78    1
    17     9    36    1
    18     9    79    1
    19    37    10    1
    20    10    80    1
    21    38    11    1
    22    11    81    1
    23    12    39    1
    24    12    82    1
    25    13    41    1
    26    13    91    1
    27    14    42    2
    28    15    43    2
    29    16    44    2
    30    17    49    2
    31    18    50    2
    32    24    19    1
    33    19    42   am
    34    19    66    1
    35    31    20    1
    36    20    43   am
    37    20    72    1
    38    21    33    1
    39    21    44   am
    40    21    74    1
    41    48    22    1
    42    22    50   am
    43    22    93    1
    44    23    49   am
    45    23    94    1
    46    23    95    1
    47    24    26    1
    48    24    28    1
    49    24    52    1
    50    25    26    1
    51    25    29    1
    52    25    53    1
    53    26    54    1
    54    27    30    1
    55    27    32    1
    56    27    55    1
    57    28    56    1
    58    29    36    1
    59    29    57    1
    60    30    31    1
    61    30    58    1
    62    31    33    1
    63    31    59    1
    64    32    39    1
    65    32    60    1
    66    33    61    1
    67    34    35    1
    68    34    62    1
    69    35    37    1
    70    35    63    1
    71    36    64    1
    72    36    65    1
    73    37    38    1
    74    37    67    1
    75    38    40    1
    76    38    68    1
    77    39    69    1
    78    39    70    1
    79    40    41    1
    80    40    71    1
    81    41    76    1
    82    41    77    1
    83    42    45    1
    84    43    47    1
    85    44    46    1
    86    45    83    1
    87    45    84    1
    88    45    85    1
    89    46    48    1
    90    46    86    1
    91    46    87    1
    92    47    88    1
    93    47    89    1
    94    47    90    1
    95    48    49    1
    96    48    92    1
    97    50    51    1
    98    51    96    1
    99    51    97    1
   100    51    98    1
