@<TRIPOS>MOLECULE
IMPHY013533
 128 139 0 0 0
SMALL
GASTEIGER

@<TRIPOS>ATOM
      1 O          12.9669   -0.7573    0.0000 O.3     1  UNL1       -0.4501
      2 O           8.6978   -0.1110    0.0000 O.3     1  UNL1       -0.4532
      3 O          13.2147    0.0835    0.0000 O.3     1  UNL1       -0.3504
      4 O           9.7670   -0.7694    0.0000 O.3     1  UNL1       -0.4502
      5 O          12.7299    1.7759    0.0000 O.3     1  UNL1       -0.3539
      6 O          13.2299    0.9098    0.0000 O.3     1  UNL1       -0.3539
      7 O          11.3638    2.4098    0.0000 O.2     1  UNL1       -0.2864
      8 O           7.5726   -0.1722    0.0000 O.3     1  UNL1       -0.4501
      9 O          10.6652    3.1483    0.0000 O.3     1  UNL1       -0.4808
     10 O          10.5475   -0.9560    0.0000 O.2     1  UNL1       -0.2453
     11 O           9.6761   -2.0467    0.0000 O.3     1  UNL1       -0.4505
     12 O          13.9940   -2.6962    0.0000 O.3     1  UNL1       -0.5009
     13 O           7.6040    1.4676    0.0000 O.3     1  UNL1       -0.5062
     14 O          10.1064   -2.5614    0.0000 O.2     1  UNL1       -0.2449
     15 O          12.8079   -4.3585    0.0000 O.3     1  UNL1       -0.5032
     16 O          11.1996    5.8104    0.0000 O.3     1  UNL1       -0.3875
     17 O           7.4034   -1.6567    0.0000 O.3     1  UNL1       -0.4573
     18 O           7.6441    4.9315    0.0000 O.3     1  UNL1       -0.5063
     19 O           6.9181   -1.7267    0.0000 O.2     1  UNL1       -0.2449
     20 O          10.5334   -3.5517    0.0000 O.2     1  UNL1       -0.2449
     21 O           5.6509   -0.9035    0.0000 O.2     1  UNL1       -0.2449
     22 O          14.2296    5.7258    0.0000 O.3     1  UNL1       -0.5033
     23 O          15.2028    3.9785    0.0000 O.3     1  UNL1       -0.5033
     24 O           3.5833    0.7547    0.0000 O.3     1  UNL1       -0.5028
     25 O           6.4869    2.7794    0.0000 O.3     1  UNL1       -0.5032
     26 O           3.1581   -0.1435    0.0000 O.3     1  UNL1       -0.5028
     27 O           4.4454    2.6127    0.0000 O.3     1  UNL1       -0.5009
     28 O           2.2674   -1.9879    0.0000 O.3     1  UNL1       -0.5009
     29 O           3.4325   -3.6726    0.0000 O.3     1  UNL1       -0.5032
     30 O           7.9210   -6.0366    0.0000 O.3     1  UNL1       -0.5032
     31 O           6.2062   -3.0266    0.0000 O.3     1  UNL1       -0.5032
     32 O           6.1947   -5.0266    0.0000 O.3     1  UNL1       -0.5009
     33 C          11.3638   -0.5902    0.0000 C.3     1  UNL1        0.0918
     34 C          12.2299   -0.0902    0.0000 C.3     1  UNL1        0.2834
     35 C           9.6039    1.4445    0.0000 C.3     1  UNL1        0.0608
     36 C          10.4978    0.9098    0.0000 C.2     1  UNL1        0.0227
     37 C          10.4978   -0.0902    0.0000 C.2     1  UNL1        0.0579
     38 C           8.6978    0.9306    0.0000 C.3     1  UNL1        0.1548
     39 C          12.2299    0.9098    0.0000 C.3     1  UNL1        0.2980
     40 C          11.5730   -1.5620    0.0000 C.ar    1  UNL1        0.0263
     41 C           9.2176    0.0713    0.0000 C.3     1  UNL1        0.1811
     42 C          11.3638    1.4098    0.0000 C.2     1  UNL1        0.2256
     43 C          12.5618   -1.6650    0.0000 C.ar    1  UNL1        0.1741
     44 C           9.1139    2.3162    0.0000 C.ar    1  UNL1        0.0473
     45 C           9.6039   -0.6248    0.0000 C.2     1  UNL1        0.3368
     46 C           8.4764   -0.6000    0.0000 C.3     1  UNL1        0.1834
     47 C          10.9523   -2.3908    0.0000 C.ar    1  UNL1        0.0701
     48 C           9.6239    3.1764    0.0000 C.ar    1  UNL1        0.1356
     49 C          12.9983   -2.6040    0.0000 C.ar    1  UNL1        0.2013
     50 C          10.3455   -1.5904    0.0000 C.2     1  UNL1        0.3402
     51 C           8.8130   -1.5417    0.0000 C.3     1  UNL1        0.1774
     52 C           8.1140    2.3278    0.0000 C.ar    1  UNL1        0.1277
     53 C          11.3670   -3.3396    0.0000 C.ar    1  UNL1       -0.0020
     54 C           9.1340    4.0482    0.0000 C.ar    1  UNL1        0.0387
     55 C          12.3969   -3.4469    0.0000 C.ar    1  UNL1        0.1628
     56 C           9.6513    4.9523    0.0000 C.3     1  UNL1        0.0092
     57 C          11.2033    4.0402    0.0000 C.3     1  UNL1        0.1513
     58 C          10.6929    4.9482    0.0000 C.3     1  UNL1        0.1004
     59 C           7.6240    3.1996    0.0000 C.ar    1  UNL1        0.0221
     60 C           8.1340    4.0597    0.0000 C.ar    1  UNL1        0.1271
     61 C           8.1658   -2.3040    0.0000 C.3     1  UNL1        0.1333
     62 C          12.2031    4.0248    0.0000 C.ar    1  UNL1       -0.0012
     63 C           6.7501   -0.7409    0.0000 C.2     1  UNL1        0.3405
     64 C           9.6704   -3.0467    0.0000 C.2     1  UNL1        0.3399
     65 C           6.1813    0.0815    0.0000 C.ar    1  UNL1        0.0740
     66 C          12.7164    4.8830    0.0000 C.ar    1  UNL1       -0.0098
     67 C          12.6897    3.1512    0.0000 C.ar    1  UNL1       -0.0513
     68 C           6.3222   -1.6448    0.0000 C.2     1  UNL1        0.3401
     69 C           5.1846    0.0001    0.0000 C.ar    1  UNL1        0.0458
     70 C           8.8014   -3.5416    0.0000 C.ar    1  UNL1        0.0661
     71 C          13.7163    4.8676    0.0000 C.ar    1  UNL1        0.1586
     72 C          13.6896    3.1357    0.0000 C.ar    1  UNL1       -0.0162
     73 C           5.3255   -1.7261    0.0000 C.ar    1  UNL1        0.0740
     74 C           4.7567   -0.9036    0.0000 C.ar    1  UNL1        0.0458
     75 C           6.6414    1.0160    0.0000 C.ar    1  UNL1       -0.0017
     76 C          14.2029    3.9940    0.0000 C.ar    1  UNL1        0.1582
     77 C           4.5790    0.8476    0.0000 C.ar    1  UNL1        0.1708
     78 C           6.0556    1.8772    0.0000 C.ar    1  UNL1        0.1628
     79 C           3.7174   -0.9724    0.0000 C.ar    1  UNL1        0.1708
     80 C           7.9383   -3.0367    0.0000 C.ar    1  UNL1       -0.0023
     81 C           8.7956   -4.5416    0.0000 C.ar    1  UNL1       -0.0023
     82 C           5.0174    1.7925    0.0000 C.ar    1  UNL1        0.2012
     83 C           4.8944   -2.6744    0.0000 C.ar    1  UNL1       -0.0017
     84 C           3.2644   -1.9104    0.0000 C.ar    1  UNL1        0.2012
     85 C           3.8569   -2.7671    0.0000 C.ar    1  UNL1        0.1628
     86 C           7.9268   -5.0366    0.0000 C.ar    1  UNL1        0.1628
     87 C           7.0694   -3.5316    0.0000 C.ar    1  UNL1        0.1628
     88 C           7.0636   -4.5316    0.0000 C.ar    1  UNL1        0.2006
     89 H          11.3638    0.0298    0.0000 H       1  UNL1        0.0467
     90 H          10.0482    1.8770    0.0000 H       1  UNL1        0.0438
     91 H           8.1621    1.2427    0.0000 H       1  UNL1        0.0782
     92 H           9.7424    0.4014    0.0000 H       1  UNL1        0.0811
     93 H           9.0778   -0.7508    0.0000 H       1  UNL1        0.0812
     94 H          13.6132   -0.3915    0.0000 H       1  UNL1        0.2140
     95 H           9.2903   -1.1459    0.0000 H       1  UNL1        0.0808
     96 H          12.4199    2.3128    0.0000 H       1  UNL1        0.2134
     97 H          13.5399    1.4468    0.0000 H       1  UNL1        0.2134
     98 H          11.0010   -3.8400    0.0000 H       1  UNL1        0.0663
     99 H           9.7597    5.5627    0.0000 H       1  UNL1        0.0342
    100 H           9.0684    5.1636    0.0000 H       1  UNL1        0.0342
    101 H          11.5205    4.5729    0.0000 H       1  UNL1        0.0811
    102 H          10.3860    5.4870    0.0000 H       1  UNL1        0.0637
    103 H           7.0041    3.2067    0.0000 H       1  UNL1        0.0691
    104 H           7.7645   -2.7766    0.0000 H       1  UNL1        0.0736
    105 H           8.6384   -2.7053    0.0000 H       1  UNL1        0.0736
    106 H          14.2532   -3.2594    0.0000 H       1  UNL1        0.2924
    107 H           7.9078    0.9271    0.0000 H       1  UNL1        0.2921
    108 H          13.4248   -4.4204    0.0000 H       1  UNL1        0.2923
    109 H          10.8937    6.3497    0.0000 H       1  UNL1        0.2100
    110 H           7.0241    4.9387    0.0000 H       1  UNL1        0.2921
    111 H          12.4147    5.4246    0.0000 H       1  UNL1        0.0659
    112 H          12.3715    2.6191    0.0000 H       1  UNL1        0.0623
    113 H          13.9913    2.5941    0.0000 H       1  UNL1        0.0655
    114 H           7.2599    1.0593    0.0000 H       1  UNL1        0.0664
    115 H           7.9419   -2.4167    0.0000 H       1  UNL1        0.0663
    116 H           9.3308   -4.8547    0.0000 H       1  UNL1        0.0663
    117 H           5.2530   -3.1802    0.0000 H       1  UNL1        0.0664
    118 H          14.8495    5.7162    0.0000 H       1  UNL1        0.2923
    119 H          15.5045    3.4369    0.0000 H       1  UNL1        0.2923
    120 H           3.2248    1.2605    0.0000 H       1  UNL1        0.2923
    121 H           6.1362    3.2907    0.0000 H       1  UNL1        0.2923
    122 H           2.5396   -0.1868    0.0000 H       1  UNL1        0.2923
    123 H           3.8276    2.5599    0.0000 H       1  UNL1        0.2924
    124 H           2.0000   -2.5473    0.0000 H       1  UNL1        0.2924
    125 H           3.7872   -4.1812    0.0000 H       1  UNL1        0.2923
    126 H           8.4561   -6.3497    0.0000 H       1  UNL1        0.2923
    127 H           5.6675   -3.3334    0.0000 H       1  UNL1        0.2923
    128 H           6.1911   -5.6466    0.0000 H       1  UNL1        0.2924
@<TRIPOS>BOND
     1     1    34    1
     2     1    43    1
     3     2    38    1
     4     2    45    1
     5     3    34    1
     6     3    94    1
     7     4    41    1
     8     4    50    1
     9     5    39    1
    10     5    96    1
    11     6    39    1
    12     6    97    1
    13     7    42    2
    14     8    46    1
    15     8    63    1
    16     9    48    1
    17     9    57    1
    18    10    45    2
    19    11    51    1
    20    11    64    1
    21    12    49    1
    22    12   106    1
    23    13    52    1
    24    13   107    1
    25    14    50    2
    26    15    55    1
    27    15   108    1
    28    16    58    1
    29    16   109    1
    30    17    61    1
    31    17    68    1
    32    18    60    1
    33    18   110    1
    34    19    63    2
    35    20    64    2
    36    21    68    2
    37    22    71    1
    38    22   118    1
    39    23    76    1
    40    23   119    1
    41    24    77    1
    42    24   120    1
    43    25    78    1
    44    25   121    1
    45    26    79    1
    46    26   122    1
    47    27    82    1
    48    27   123    1
    49    28    84    1
    50    28   124    1
    51    29    85    1
    52    29   125    1
    53    30    86    1
    54    30   126    1
    55    31    87    1
    56    31   127    1
    57    32    88    1
    58    32   128    1
    59    33    34    1
    60    33    37    1
    61    33    40    1
    62    33    89    1
    63    34    39    1
    64    35    36    1
    65    35    38    1
    66    35    44    1
    67    35    90    1
    68    36    37    2
    69    36    42    1
    70    37    45    1
    71    38    41    1
    72    38    91    1
    73    39    42    1
    74    40    43   ar
    75    40    47   ar
    76    41    46    1
    77    41    92    1
    78    43    49   ar
    79    44    48   ar
    80    44    52   ar
    81    46    51    1
    82    46    93    1
    83    47    50    1
    84    47    53   ar
    85    48    54   ar
    86    49    55   ar
    87    51    61    1
    88    51    95    1
    89    52    59   ar
    90    53    55   ar
    91    53    98    1
    92    54    56    1
    93    54    60   ar
    94    56    58    1
    95    56    99    1
    96    56   100    1
    97    57    58    1
    98    57    62    1
    99    57   101    1
   100    58   102    1
   101    59    60   ar
   102    59   103    1
   103    61   104    1
   104    61   105    1
   105    62    66   ar
   106    62    67   ar
   107    63    65    1
   108    64    70    1
   109    65    69   ar
   110    65    75   ar
   111    66    71   ar
   112    66   111    1
   113    67    72   ar
   114    67   112    1
   115    68    73    1
   116    69    74    1
   117    69    77   ar
   118    70    80   ar
   119    70    81   ar
   120    71    76   ar
   121    72    76   ar
   122    72   113    1
   123    73    74   ar
   124    73    83   ar
   125    74    79   ar
   126    75    78   ar
   127    75   114    1
   128    77    82   ar
   129    78    82   ar
   130    79    84   ar
   131    80    87   ar
   132    80   115    1
   133    81    86   ar
   134    81   116    1
   135    83    85   ar
   136    83   117    1
   137    84    85   ar
   138    86    88   ar
   139    87    88   ar
