@<TRIPOS>MOLECULE
IMPHY017591
 35 36 0 0 0
SMALL
GASTEIGER

@<TRIPOS>ATOM
      1 O           2.8660   -1.5000    0.0000 O.2     1  UNL1       -0.2927
      2 C           5.4641   -0.0000    0.0000 C.3     1  UNL1        0.0101
      3 C           6.3580   -0.5347    0.0000 C.3     1  UNL1       -0.0310
      4 C           5.4641    1.0000    0.0000 C.2     1  UNL1       -0.0632
      5 C           7.2641   -0.0208    0.0000 C.3     1  UNL1       -0.0459
      6 C           4.5981    1.5000    0.0000 C.3     1  UNL1       -0.0268
      7 C           4.5981   -0.5000    0.0000 C.2     1  UNL1       -0.0674
      8 C           7.2641    1.0208    0.0000 C.3     1  UNL1       -0.0342
      9 C           5.4641   -1.0000    0.0000 C.3     1  UNL1       -0.0521
     10 C           6.3580    1.5346    0.0000 C.2     1  UNL1       -0.0839
     11 C           3.7320    1.0000    0.0000 C.3     1  UNL1       -0.0210
     12 C           6.3465   -1.5346    0.0000 C.3     1  UNL1       -0.0613
     13 C           3.7320   -0.0000    0.0000 C.2     1  UNL1       -0.0080
     14 C           2.8660   -0.5000    0.0000 C.2     1  UNL1        0.1559
     15 C           2.0000   -0.0000    0.0000 C.3     1  UNL1       -0.0017
     16 H           6.8920   -0.8499    0.0000 H       1  UNL1        0.0310
     17 H           7.4732   -0.6045    0.0000 H       1  UNL1        0.0271
     18 H           7.8750    0.0852    0.0000 H       1  UNL1        0.0271
     19 H           4.9966    1.9749    0.0000 H       1  UNL1        0.0313
     20 H           4.1996    1.9749    0.0000 H       1  UNL1        0.0313
     21 H           4.5981   -1.1200    0.0000 H       1  UNL1        0.0584
     22 H           7.8750    0.9147    0.0000 H       1  UNL1        0.0307
     23 H           7.4732    1.6045    0.0000 H       1  UNL1        0.0307
     24 H           4.8441   -1.0000    0.0000 H       1  UNL1        0.0241
     25 H           5.4641   -1.6200    0.0000 H       1  UNL1        0.0241
     26 H           6.0841   -1.0000    0.0000 H       1  UNL1        0.0241
     27 H           6.3509    2.1546    0.0000 H       1  UNL1        0.0572
     28 H           3.5200    1.5826    0.0000 H       1  UNL1        0.0317
     29 H           3.1215    0.8923    0.0000 H       1  UNL1        0.0317
     30 H           5.7265   -1.5275    0.0000 H       1  UNL1        0.0233
     31 H           6.3393   -2.1546    0.0000 H       1  UNL1        0.0233
     32 H           6.9664   -1.5418    0.0000 H       1  UNL1        0.0233
     33 H           2.3100    0.5369    0.0000 H       1  UNL1        0.0309
     34 H           1.4631    0.3100    0.0000 H       1  UNL1        0.0309
     35 H           1.6900   -0.5370    0.0000 H       1  UNL1        0.0309
@<TRIPOS>BOND
     1     1    14    2
     2     2     3    1
     3     2     4    1
     4     2     7    1
     5     2     9    1
     6     3     5    1
     7     3    12    1
     8     3    16    1
     9     4     6    1
    10     4    10    2
    11     5     8    1
    12     5    17    1
    13     5    18    1
    14     6    11    1
    15     6    19    1
    16     6    20    1
    17     7    13    2
    18     7    21    1
    19     8    10    1
    20     8    22    1
    21     8    23    1
    22     9    24    1
    23     9    25    1
    24     9    26    1
    25    10    27    1
    26    11    13    1
    27    11    28    1
    28    11    29    1
    29    12    30    1
    30    12    31    1
    31    12    32    1
    32    13    14    1
    33    14    15    1
    34    15    33    1
    35    15    34    1
    36    15    35    1
