@<TRIPOS>MOLECULE
IMPHY005889
 48 51 0 0 0
SMALL
GASTEIGER

@<TRIPOS>ATOM
      1 O           6.9343    1.4050    0.0000 O.3     1  UNL1       -0.3369
      2 O           7.8003   -0.0950    0.0000 O.3     1  UNL1       -0.4532
      3 O           9.5323    2.9050    0.0000 O.3     1  UNL1       -0.3864
      4 O           9.5323    0.9050    0.0000 O.3     1  UNL1       -0.3829
      5 O           7.8003    3.9050    0.0000 O.3     1  UNL1       -0.3869
      6 O           6.0682   -2.0950    0.0000 O.2     1  UNL1       -0.4507
      7 O           6.0682    0.9050    0.0000 O.2     1  UNL1       -0.2830
      8 O           4.3198    0.9396    0.0000 O.3     1  UNL1       -0.5058
      9 O           2.5381   -2.1192    0.0000 O.3     1  UNL1       -0.5065
     10 O          10.3984   -3.5950    0.0000 O.3     1  UNL1       -0.5068
     11 C           8.6663    2.4050    0.0000 C.3     1  UNL1        0.1148
     12 C           8.6663    1.4050    0.0000 C.3     1  UNL1        0.1454
     13 C           7.8003    2.9050    0.0000 C.3     1  UNL1        0.1070
     14 C           7.8003    0.9050    0.0000 C.3     1  UNL1        0.2308
     15 C           6.9343    2.4050    0.0000 C.3     1  UNL1        0.0802
     16 C           6.9343   -0.5950    0.0000 C.ar    1  UNL1        0.2138
     17 C           6.9343   -1.5950    0.0000 C.ar    1  UNL1        0.1809
     18 C           6.0682   -0.0950    0.0000 C.ar    1  UNL1        0.2382
     19 C           5.2022   -0.5950    0.0000 C.ar    1  UNL1        0.1092
     20 C           5.2022   -1.5950    0.0000 C.ar    1  UNL1        0.1465
     21 C           7.8003   -2.0950    0.0000 C.ar    1  UNL1        0.0213
     22 C           4.3083   -0.0603    0.0000 C.ar    1  UNL1        0.1348
     23 C           4.3083   -2.1297    0.0000 C.ar    1  UNL1        0.0231
     24 C           8.6663   -1.5950    0.0000 C.ar    1  UNL1       -0.0475
     25 C           7.8003   -3.0950    0.0000 C.ar    1  UNL1       -0.0475
     26 C           3.4022   -0.5742    0.0000 C.ar    1  UNL1        0.0223
     27 C           3.4022   -1.6158    0.0000 C.ar    1  UNL1        0.1239
     28 C           9.5323   -2.0950    0.0000 C.ar    1  UNL1       -0.0195
     29 C           8.6663   -3.5950    0.0000 C.ar    1  UNL1       -0.0195
     30 C           9.5323   -3.0950    0.0000 C.ar    1  UNL1        0.1169
     31 H           8.6663    3.0250    0.0000 H       1  UNL1        0.0648
     32 H           9.2033    1.7150    0.0000 H       1  UNL1        0.0683
     33 H           7.2634    3.2150    0.0000 H       1  UNL1        0.0643
     34 H           8.3372    0.5950    0.0000 H       1  UNL1        0.1084
     35 H           6.7222    2.9876    0.0000 H       1  UNL1        0.0588
     36 H           6.3237    2.2973    0.0000 H       1  UNL1        0.0588
     37 H           9.5323    3.5250    0.0000 H       1  UNL1        0.2100
     38 H          10.0693    1.2150    0.0000 H       1  UNL1        0.2102
     39 H           7.2634    4.2150    0.0000 H       1  UNL1        0.2100
     40 H           4.3154   -2.7496    0.0000 H       1  UNL1        0.0691
     41 H           8.6663   -0.9750    0.0000 H       1  UNL1        0.0626
     42 H           7.2634   -3.4050    0.0000 H       1  UNL1        0.0626
     43 H           2.8665   -0.2621    0.0000 H       1  UNL1        0.0691
     44 H          10.0693   -1.7850    0.0000 H       1  UNL1        0.0654
     45 H           8.6663   -4.2150    0.0000 H       1  UNL1        0.0654
     46 H           3.7865    1.2558    0.0000 H       1  UNL1        0.2922
     47 H           2.0000   -1.8112    0.0000 H       1  UNL1        0.2921
     48 H          10.3984   -4.2150    0.0000 H       1  UNL1        0.2921
@<TRIPOS>BOND
     1     1    14    1
     2     1    15    1
     3    14     2    1
     4     2    16    1
     5    11     3    1
     6     3    37    1
     7    12     4    1
     8     4    38    1
     9    13     5    1
    10     5    39    1
    11     6    17   ar
    12     6    20   ar
    13     7    18    2
    14     8    22    1
    15     8    46    1
    16     9    27    1
    17     9    47    1
    18    10    30    1
    19    10    48    1
    20    11    12    1
    21    11    13    1
    22    11    31    1
    23    12    14    1
    24    12    32    1
    25    13    15    1
    26    13    33    1
    27    14    34    1
    28    15    35    1
    29    15    36    1
    30    16    17   ar
    31    16    18   ar
    32    17    21    1
    33    18    19   ar
    34    19    20   ar
    35    19    22   ar
    36    20    23   ar
    37    21    24   ar
    38    21    25   ar
    39    22    26   ar
    40    23    27   ar
    41    23    40    1
    42    24    28   ar
    43    24    41    1
    44    25    29   ar
    45    25    42    1
    46    26    27   ar
    47    26    43    1
    48    28    30   ar
    49    28    44    1
    50    29    30   ar
    51    29    45    1
