@<TRIPOS>MOLECULE
IMPHY016840
 40 41 0 0 0
SMALL
GASTEIGER

@<TRIPOS>ATOM
      1 O           3.8021    2.0864    0.0000 O.3     1  UNL1       -0.3909
      2 C           4.3693    0.4908    0.0000 C.3     1  UNL1        0.0154
      3 C           5.3220   -0.8092    0.0000 C.3     1  UNL1       -0.0166
      4 C           5.3140    0.8002    0.0000 C.3     1  UNL1       -0.0410
      5 C           4.3743   -0.5092    0.0000 C.2     1  UNL1       -0.0576
      6 C           5.9016   -0.0016    0.0000 C.3     1  UNL1       -0.0454
      7 C           3.5844    1.1104    0.0000 C.3     1  UNL1        0.0646
      8 C           5.6374   -1.7582    0.0000 C.3     1  UNL1       -0.0402
      9 C           4.3644    1.4908    0.0000 C.3     1  UNL1       -0.0535
     10 C           2.6106    0.8830    0.0000 C.3     1  UNL1       -0.0221
     11 C           3.5956   -1.1366    0.0000 C.2     1  UNL1       -0.0590
     12 C           2.1812   -0.0202    0.0000 C.3     1  UNL1       -0.0259
     13 C           2.6196   -0.9189    0.0000 C.2     1  UNL1       -0.0544
     14 C           6.6170   -1.9595    0.0000 C.3     1  UNL1       -0.0621
     15 C           4.9733   -2.5058    0.0000 C.3     1  UNL1       -0.0621
     16 C           2.0000   -1.7039    0.0000 C.2     1  UNL1       -0.0955
     17 H           5.9350   -0.9024    0.0000 H       1  UNL1        0.0348
     18 H           5.8499    1.1121    0.0000 H       1  UNL1        0.0275
     19 H           5.0602    1.3659    0.0000 H       1  UNL1        0.0275
     20 H           6.3646   -0.4140    0.0000 H       1  UNL1        0.0271
     21 H           6.3604    0.4154    0.0000 H       1  UNL1        0.0271
     22 H           3.1438    1.5466    0.0000 H       1  UNL1        0.0602
     23 H           5.0301   -1.6334    0.0000 H       1  UNL1        0.0301
     24 H           4.9843    1.4938    0.0000 H       1  UNL1        0.0239
     25 H           4.3613    2.1108    0.0000 H       1  UNL1        0.0239
     26 H           3.7444    1.4877    0.0000 H       1  UNL1        0.0239
     27 H           2.6075    1.5030    0.0000 H       1  UNL1        0.0293
     28 H           2.0055    1.0179    0.0000 H       1  UNL1        0.0293
     29 H           3.7366   -1.7404    0.0000 H       1  UNL1        0.0620
     30 H           1.6946    0.3640    0.0000 H       1  UNL1        0.0314
     31 H           1.6984   -0.4091    0.0000 H       1  UNL1        0.0314
     32 H           6.4921   -2.5668    0.0000 H       1  UNL1        0.0233
     33 H           7.2243   -2.0844    0.0000 H       1  UNL1        0.0233
     34 H           6.7418   -1.3522    0.0000 H       1  UNL1        0.0233
     35 H           4.5098   -2.0941    0.0000 H       1  UNL1        0.0233
     36 H           4.5616   -2.9693    0.0000 H       1  UNL1        0.0233
     37 H           5.4368   -2.9176    0.0000 H       1  UNL1        0.0233
     38 H           3.3455    2.5058    0.0000 H       1  UNL1        0.2098
     39 H           1.3865   -1.6145    0.0000 H       1  UNL1        0.0537
     40 H           2.2294   -2.2799    0.0000 H       1  UNL1        0.0537
@<TRIPOS>BOND
     1     7     1    1
     2     1    38    1
     3     2     4    1
     4     2     5    1
     5     2     7    1
     6     2     9    1
     7     3     5    1
     8     3     6    1
     9     3     8    1
    10     3    17    1
    11     4     6    1
    12     4    18    1
    13     4    19    1
    14     5    11    2
    15     6    20    1
    16     6    21    1
    17     7    10    1
    18     7    22    1
    19     8    14    1
    20     8    15    1
    21     8    23    1
    22     9    24    1
    23     9    25    1
    24     9    26    1
    25    10    12    1
    26    10    27    1
    27    10    28    1
    28    11    13    1
    29    11    29    1
    30    12    13    1
    31    12    30    1
    32    12    31    1
    33    13    16    2
    34    14    32    1
    35    14    33    1
    36    14    34    1
    37    15    35    1
    38    15    36    1
    39    15    37    1
    40    16    39    1
    41    16    40    1
