@<TRIPOS>MOLECULE
IMPHY004949
 43 44 0 0 0
SMALL
GASTEIGER

@<TRIPOS>ATOM
      1 O           7.1260    1.2426    0.0000 O.3     1  UNL1       -0.3886
      2 O           4.3828   -2.2606    0.0000 O.3     1  UNL1       -0.3883
      3 C           5.3792   -0.6572    0.0000 C.3     1  UNL1       -0.0063
      4 C           5.3742    0.3427    0.0000 C.3     1  UNL1       -0.0033
      5 C           6.3189    0.6522    0.0000 C.3     1  UNL1        0.0668
      6 C           6.3269   -0.9573    0.0000 C.3     1  UNL1       -0.0447
      7 C           4.6005   -1.2846    0.0000 C.3     1  UNL1        0.0699
      8 C           6.9065   -0.1496    0.0000 C.3     1  UNL1       -0.0236
      9 C           4.5893    0.9623    0.0000 C.3     1  UNL1       -0.0257
     10 C           3.6244   -1.0670    0.0000 C.3     1  UNL1       -0.0055
     11 C           3.6155    0.7350    0.0000 C.2     1  UNL1       -0.0704
     12 C           6.0068    1.6022    0.0000 C.3     1  UNL1       -0.0358
     13 C           5.2278   -2.0633    0.0000 C.3     1  UNL1       -0.0355
     14 C           3.1861   -0.1682    0.0000 C.2     1  UNL1       -0.0818
     15 C           2.9881    1.5137    0.0000 C.3     1  UNL1       -0.0256
     16 C           2.0000    1.3597    0.0000 C.3     1  UNL1       -0.0590
     17 C           3.3488    2.4463    0.0000 C.3     1  UNL1       -0.0590
     18 H           5.5362   -1.4926    0.0000 H       1  UNL1        0.0332
     19 H           5.5229    1.1796    0.0000 H       1  UNL1        0.0335
     20 H           6.0787   -1.5254    0.0000 H       1  UNL1        0.0270
     21 H           6.8658   -1.2638    0.0000 H       1  UNL1        0.0270
     22 H           7.3694   -0.5620    0.0000 H       1  UNL1        0.0293
     23 H           7.3653    0.2674    0.0000 H       1  UNL1        0.0293
     24 H           5.0721    1.3513    0.0000 H       1  UNL1        0.0314
     25 H           4.3175    1.5196    0.0000 H       1  UNL1        0.0314
     26 H           3.0207   -1.2079    0.0000 H       1  UNL1        0.0335
     27 H           3.6275   -1.6870    0.0000 H       1  UNL1        0.0335
     28 H           6.5958    1.7958    0.0000 H       1  UNL1        0.0257
     29 H           5.8133    2.1913    0.0000 H       1  UNL1        0.0257
     30 H           5.4177    1.4087    0.0000 H       1  UNL1        0.0257
     31 H           4.7450   -2.4523    0.0000 H       1  UNL1        0.0257
     32 H           5.6168   -2.5461    0.0000 H       1  UNL1        0.0257
     33 H           5.7106   -1.6744    0.0000 H       1  UNL1        0.0257
     34 H           2.5661   -0.1713    0.0000 H       1  UNL1        0.0573
     35 H           7.6932    0.9923    0.0000 H       1  UNL1        0.2102
     36 H           2.5991    1.9965    0.0000 H       1  UNL1        0.0340
     37 H           3.7913   -2.4463    0.0000 H       1  UNL1        0.2102
     38 H           1.9045    1.9723    0.0000 H       1  UNL1        0.0235
     39 H           1.3874    1.2642    0.0000 H       1  UNL1        0.0235
     40 H           2.0955    0.7471    0.0000 H       1  UNL1        0.0235
     41 H           3.9270    2.2227    0.0000 H       1  UNL1        0.0235
     42 H           3.5724    3.0246    0.0000 H       1  UNL1        0.0235
     43 H           2.7705    2.6700    0.0000 H       1  UNL1        0.0235
@<TRIPOS>BOND
     1     1     5    1
     2     1    35    1
     3     2     7    1
     4     2    37    1
     5     3     4    1
     6     3     6    1
     7     3     7    1
     8     3    18    1
     9     4     5    1
    10     4     9    1
    11     4    19    1
    12     5     8    1
    13     5    12    1
    14     6     8    1
    15     6    20    1
    16     6    21    1
    17     7    10    1
    18     7    13    1
    19     8    22    1
    20     8    23    1
    21     9    11    1
    22     9    24    1
    23     9    25    1
    24    10    14    1
    25    10    26    1
    26    10    27    1
    27    11    14    2
    28    11    15    1
    29    12    28    1
    30    12    29    1
    31    12    30    1
    32    13    31    1
    33    13    32    1
    34    13    33    1
    35    14    34    1
    36    15    16    1
    37    15    17    1
    38    15    36    1
    39    16    38    1
    40    16    39    1
    41    16    40    1
    42    17    41    1
    43    17    42    1
    44    17    43    1
