@<TRIPOS>MOLECULE
IMPHY010442
 82 86 0 0 0
SMALL
GASTEIGER

@<TRIPOS>ATOM
      1 O           6.4146   -1.5394    0.0000 O.3     1  UNL1       -0.3612
      2 O           8.9704   -3.1944    0.0000 O.3     1  UNL1       -0.4538
      3 O           9.6451   -0.6155    0.0000 O.3     1  UNL1       -0.4607
      4 O           3.3700   -0.0802    0.0000 O.3     1  UNL1       -0.4609
      5 O           6.2584   -3.3245    0.0000 O.3     1  UNL1       -0.3779
      6 O           7.8738   -4.5839    0.0000 O.2     1  UNL1       -0.2478
      7 O           5.9805    3.7836    0.0000 O.3     1  UNL1       -0.4679
      8 O           4.5942    2.7451    0.0000 O.2     1  UNL1       -0.2509
      9 O          11.2360   -0.7023    0.0000 O.2     1  UNL1       -0.4706
     10 O          11.1451    0.2506    0.0000 O.2     1  UNL1       -0.2512
     11 O           3.6028   -1.7966    0.0000 O.2     1  UNL1       -0.2512
     12 C           6.4146    0.3084    0.0000 C.3     1  UNL1        0.0049
     13 C           7.3385    0.6911    0.0000 C.3     1  UNL1       -0.0060
     14 C           7.3385   -1.9220    0.0000 C.3     1  UNL1        0.1394
     15 C           6.0320   -0.6155    0.0000 C.3     1  UNL1        0.0695
     16 C           5.7933    1.1445    0.0000 C.3     1  UNL1       -0.0142
     17 C           8.2624   -1.5394    0.0000 C.3     1  UNL1        0.0818
     18 C           4.7596    1.0165    0.0000 C.3     1  UNL1        0.0062
     19 C           6.9725   -0.6155    0.0000 C.2     1  UNL1       -0.0376
     20 C           8.2624    0.3084    0.0000 C.3     1  UNL1       -0.0077
     21 C           8.6451   -0.6155    0.0000 C.3     1  UNL1        0.1157
     22 C           5.0014   -0.7673    0.0000 C.3     1  UNL1        0.0118
     23 C           4.3610    0.0541    0.0000 C.3     1  UNL1        0.1108
     24 C           6.7973    1.2323    0.0000 C.3     1  UNL1       -0.0564
     25 C           7.1866   -2.9525    0.0000 C.3     1  UNL1        0.1853
     26 C           9.0984   -2.1606    0.0000 C.3     1  UNL1        0.1428
     27 C           6.1867    2.0639    0.0000 C.3     1  UNL1        0.0489
     28 C           9.1863   -1.1567    0.0000 C.3     1  UNL1       -0.0493
     29 C           3.8372    1.4027    0.0000 C.3     1  UNL1       -0.0562
     30 C           4.6329    2.0084    0.0000 C.3     1  UNL1       -0.0562
     31 C           5.9766   -0.0404    0.0000 C.2     1  UNL1       -0.0963
     32 C           8.0081   -3.5930    0.0000 C.2     1  UNL1        0.3399
     33 C          10.0178   -1.7673    0.0000 C.ar    1  UNL1        0.0312
     34 C           5.5871    2.8642    0.0000 C.2     1  UNL1        0.3071
     35 C          10.1451    0.2506    0.0000 C.2     1  UNL1        0.3042
     36 C          10.8765   -2.2799    0.0000 C.ar    1  UNL1       -0.0172
     37 C          10.2400   -0.7923    0.0000 C.ar    1  UNL1        0.0984
     38 C           2.9909   -1.0056    0.0000 C.2     1  UNL1        0.3042
     39 C          11.6293   -1.6217    0.0000 C.ar    1  UNL1        0.0921
     40 C           9.6451    1.1166    0.0000 C.3     1  UNL1        0.0332
     41 C           2.0000   -1.1399    0.0000 C.3     1  UNL1        0.0332
     42 C           5.3809    4.5839    0.0000 C.3     1  UNL1        0.0817
     43 H           7.7635    1.4272    0.0000 H       1  UNL1        0.0354
     44 H           5.7067   -1.4008    0.0000 H       1  UNL1        0.0603
     45 H           5.4207    1.6400    0.0000 H       1  UNL1        0.0319
     46 H           8.8771    0.3893    0.0000 H       1  UNL1        0.0307
     47 H           8.3433    0.9231    0.0000 H       1  UNL1        0.0307
     48 H           8.9895   -0.1000    0.0000 H       1  UNL1        0.0742
     49 H           4.4545   -1.0593    0.0000 H       1  UNL1        0.0326
     50 H           5.1955   -1.3562    0.0000 H       1  UNL1        0.0326
     51 H           4.1270   -0.5200    0.0000 H       1  UNL1        0.0740
     52 H           7.3701    0.9950    0.0000 H       1  UNL1        0.0236
     53 H           7.0346    1.8051    0.0000 H       1  UNL1        0.0236
     54 H           6.2245    1.4696    0.0000 H       1  UNL1        0.0236
     55 H           7.0998   -3.5664    0.0000 H       1  UNL1        0.0744
     56 H           9.5939   -2.5333    0.0000 H       1  UNL1        0.0794
     57 H           6.7057    1.7247    0.0000 H       1  UNL1        0.0381
     58 H           6.6108    2.5161    0.0000 H       1  UNL1        0.0381
     59 H           9.4235   -1.7295    0.0000 H       1  UNL1        0.0239
     60 H           9.7591   -0.9194    0.0000 H       1  UNL1        0.0239
     61 H           8.9490   -0.5839    0.0000 H       1  UNL1        0.0239
     62 H           4.0767    1.9746    0.0000 H       1  UNL1        0.0236
     63 H           3.2653    1.6422    0.0000 H       1  UNL1        0.0236
     64 H           3.5977    0.8308    0.0000 H       1  UNL1        0.0236
     65 H           5.2479    2.0870    0.0000 H       1  UNL1        0.0236
     66 H           4.5543    2.6234    0.0000 H       1  UNL1        0.0236
     67 H           4.0179    1.9298    0.0000 H       1  UNL1        0.0236
     68 H           5.9767    0.5796    0.0000 H       1  UNL1        0.0535
     69 H           5.4396   -0.3503    0.0000 H       1  UNL1        0.0535
     70 H           6.1704   -3.9382    0.0000 H       1  UNL1        0.2106
     71 H          10.9323   -2.8974    0.0000 H       1  UNL1        0.0653
     72 H           9.8319   -0.3255    0.0000 H       1  UNL1        0.1033
     73 H          12.2338   -1.7595    0.0000 H       1  UNL1        0.1029
     74 H          10.1820    1.4266    0.0000 H       1  UNL1        0.0342
     75 H           9.3351    1.6535    0.0000 H       1  UNL1        0.0342
     76 H           9.1081    0.8066    0.0000 H       1  UNL1        0.0342
     77 H           1.9167   -0.5255    0.0000 H       1  UNL1        0.0342
     78 H           1.3856   -1.2232    0.0000 H       1  UNL1        0.0342
     79 H           2.0833   -1.7543    0.0000 H       1  UNL1        0.0342
     80 H           5.8771    4.9556    0.0000 H       1  UNL1        0.0661
     81 H           5.0092    5.0801    0.0000 H       1  UNL1        0.0661
     82 H           4.8847    4.2122    0.0000 H       1  UNL1        0.0661
@<TRIPOS>BOND
     1    14     1    1
     2     1    15    1
     3     2    26    1
     4     2    32    1
     5    21     3    1
     6     3    35    1
     7    23     4    1
     8     4    38    1
     9    25     5    1
    10     5    70    1
    11     6    32    2
    12     7    34    1
    13     7    42    1
    14     8    34    2
    15     9    37   ar
    16     9    39   ar
    17    10    35    2
    18    11    38    2
    19    12    13    1
    20    12    15    1
    21    12    16    1
    22    12    24    1
    23    13    19    1
    24    13    20    1
    25    13    43    1
    26    14    17    1
    27    14    19    1
    28    14    25    1
    29    15    22    1
    30    15    44    1
    31    16    18    1
    32    16    27    1
    33    16    45    1
    34    17    21    1
    35    17    26    1
    36    17    28    1
    37    18    23    1
    38    18    29    1
    39    18    30    1
    40    19    31    2
    41    20    21    1
    42    20    46    1
    43    20    47    1
    44    21    48    1
    45    22    23    1
    46    22    49    1
    47    22    50    1
    48    23    51    1
    49    24    52    1
    50    24    53    1
    51    24    54    1
    52    25    32    1
    53    25    55    1
    54    26    33    1
    55    26    56    1
    56    27    34    1
    57    27    57    1
    58    27    58    1
    59    28    59    1
    60    28    60    1
    61    28    61    1
    62    29    62    1
    63    29    63    1
    64    29    64    1
    65    30    65    1
    66    30    66    1
    67    30    67    1
    68    31    68    1
    69    31    69    1
    70    33    36   ar
    71    33    37   ar
    72    35    40    1
    73    36    39   ar
    74    36    71    1
    75    37    72    1
    76    38    41    1
    77    39    73    1
    78    40    74    1
    79    40    75    1
    80    40    76    1
    81    41    77    1
    82    41    78    1
    83    41    79    1
    84    42    80    1
    85    42    81    1
    86    42    82    1
