@<TRIPOS>MOLECULE
IMPHY002999
 24 24 0 0 0
SMALL
GASTEIGER

@<TRIPOS>ATOM
      1 O           2.5369   -2.6900    0.0000 O.3     1  UNL1       -0.4795
      2 O           6.0010    2.3100    0.0000 O.3     1  UNL1       -0.5022
      3 OXT         4.2690   -2.6900    0.0000 O.2     1  UNL1       -0.2492
      4 O           4.2690    3.3100    0.0000 O.2     1  UNL1       -0.2839
      5 N           4.2690    0.3100    0.0000 N.ar    1  UNL1       -0.3478
      6 N           2.5369   -0.6900    0.0000 N.3     1  UNL1       -0.3170
      7 C           4.2690   -0.6900    0.0000 C.3     1  UNL1        0.0484
      8 CA          3.4030   -1.1900    0.0000 C.3     1  UNL1        0.1213
      9 C           5.1350    0.8100    0.0000 C.ar    1  UNL1        0.0502
     10 C           3.4030    0.8100    0.0000 C.ar    1  UNL1        0.0085
     11 C           3.4030   -2.1900    0.0000 C.2     1  UNL1        0.3235
     12 C           5.1350    1.8100    0.0000 C.ar    1  UNL1        0.1801
     13 C           3.4030    1.8100    0.0000 C.ar    1  UNL1        0.0049
     14 C           4.2690    2.3100    0.0000 C.ar    1  UNL1        0.2228
     15 H           4.4810   -1.2726    0.0000 H       1  UNL1        0.0512
     16 H           4.8796   -0.5823    0.0000 H       1  UNL1        0.0512
     17 HA          2.8660   -1.5000    0.0000 H       1  UNL1        0.0592
     18 H           5.6720    0.5000    0.0000 H       1  UNL1        0.0847
     19 H           2.8660    0.5000    0.0000 H       1  UNL1        0.0810
     20 H1          2.0000   -1.0000    0.0000 H       1  UNL1        0.1190
     21 H2          2.5369   -0.0700    0.0000 H       1  UNL1        0.1190
     22 H           2.8660    2.1200    0.0000 H       1  UNL1        0.0671
     23 H           2.5369   -3.3100    0.0000 H       1  UNL1        0.2951
     24 H           6.5380    2.0000    0.0000 H       1  UNL1        0.2923
@<TRIPOS>BOND
     1     1    11    1
     2     1    23    1
     3     2    12    1
     4     2    24    1
     5     3    11    2
     6     4    14    2
     7     5     7    1
     8     5     9   ar
     9     5    10   ar
    10     6     8    1
    11     6    20    1
    12     6    21    1
    13     7     8    1
    14     7    15    1
    15     7    16    1
    16     8    11    1
    17     8    17    1
    18     9    12   ar
    19     9    18    1
    20    10    13   ar
    21    10    19    1
    22    12    14   ar
    23    13    14   ar
    24    13    22    1
