@<TRIPOS>MOLECULE
IMPHY008092
 28 28 0 0 0
SMALL
GASTEIGER

@<TRIPOS>ATOM
      1 O           5.0000   -1.6160    0.0000 O.3     1  UNL1       -0.3527
      2 O           5.0000    1.1160    0.0000 O.2     1  UNL1       -0.2945
      3 C           5.8660   -1.1160    0.0000 C.3     1  UNL1        0.1185
      4 C           5.0000   -0.6160    0.0000 C.3     1  UNL1        0.1496
      5 C           4.5000    0.2500    0.0000 C.2     1  UNL1        0.1652
      6 C           6.3660   -1.9820    0.0000 C.3     1  UNL1       -0.0293
      7 C           3.5000    0.2500    0.0000 C.3     1  UNL1        0.0109
      8 C           6.3660   -0.2500    0.0000 C.2     1  UNL1       -0.0570
      9 C           3.0000    1.1160    0.0000 C.3     1  UNL1       -0.0400
     10 C           2.0000    1.1160    0.0000 C.3     1  UNL1       -0.0623
     11 C           3.5000    1.9820    0.0000 C.3     1  UNL1       -0.0623
     12 C           7.3660   -0.2500    0.0000 C.2     1  UNL1       -0.0999
     13 H           4.4011   -0.7765    0.0000 H       1  UNL1        0.0708
     14 H           5.8291   -2.2920    0.0000 H       1  UNL1        0.0261
     15 H           6.6760   -2.5190    0.0000 H       1  UNL1        0.0261
     16 H           6.9030   -1.6720    0.0000 H       1  UNL1        0.0261
     17 H           2.9174    0.0379    0.0000 H       1  UNL1        0.0345
     18 H           3.6077   -0.3606    0.0000 H       1  UNL1        0.0345
     19 H           6.0560    0.2869    0.0000 H       1  UNL1        0.0595
     20 H           2.6900    1.6530    0.0000 H       1  UNL1        0.0299
     21 H           4.0369    1.6720    0.0000 H       1  UNL1        0.0232
     22 H           3.8100    2.5190    0.0000 H       1  UNL1        0.0232
     23 H           2.9631    2.2920    0.0000 H       1  UNL1        0.0232
     24 H           2.0000    1.7360    0.0000 H       1  UNL1        0.0232
     25 H           1.3800    1.1160    0.0000 H       1  UNL1        0.0232
     26 H           2.0000    0.4960    0.0000 H       1  UNL1        0.0232
     27 H           7.6760   -0.7869    0.0000 H       1  UNL1        0.0533
     28 H           7.6760    0.2869    0.0000 H       1  UNL1        0.0533
@<TRIPOS>BOND
     1     1     3    1
     2     1     4    1
     3     2     5    2
     4     3     4    1
     5     3     6    1
     6     3     8    1
     7     4     5    1
     8     4    13    1
     9     5     7    1
    10     6    14    1
    11     6    15    1
    12     6    16    1
    13     7     9    1
    14     7    17    1
    15     7    18    1
    16     8    12    2
    17     8    19    1
    18     9    10    1
    19     9    11    1
    20     9    20    1
    21    10    24    1
    22    10    25    1
    23    10    26    1
    24    11    21    1
    25    11    22    1
    26    11    23    1
    27    12    27    1
    28    12    28    1
