@<TRIPOS>MOLECULE
IMPHY013102
 52 54 0 0 0
SMALL
GASTEIGER

@<TRIPOS>ATOM
      1 C           5.3033   -0.0902    0.0000 C.3     1  UNL1       -0.0224
      2 C           5.3033   -1.0902    0.0000 C.3     1  UNL1       -0.0309
      3 C           6.1694    0.4098    0.0000 C.3     1  UNL1       -0.0137
      4 C           4.4094    0.4444    0.0000 C.3     1  UNL1       -0.0460
      5 C           4.4094   -1.6249    0.0000 C.3     1  UNL1       -0.0405
      6 C           7.0354   -0.0902    0.0000 C.2     1  UNL1       -0.0642
      7 C           3.5033   -1.1111    0.0000 C.3     1  UNL1       -0.0140
      8 C           6.1694   -1.5902    0.0000 C.3     1  UNL1       -0.0311
      9 C           3.5033   -0.0694    0.0000 C.3     1  UNL1       -0.0437
     10 C           7.9454    0.4166    0.0000 C.3     1  UNL1       -0.0136
     11 C           6.1533    1.4513    0.0000 C.3     1  UNL1       -0.0460
     12 C           5.3033    0.9098    0.0000 C.3     1  UNL1       -0.0588
     13 C           7.0354   -1.0902    0.0000 C.2     1  UNL1       -0.0837
     14 C           7.9534    1.4582    0.0000 C.3     1  UNL1       -0.0441
     15 C           7.0513    1.9790    0.0000 C.3     1  UNL1       -0.0517
     16 C           3.0067   -1.9790    0.0000 C.3     1  UNL1       -0.0561
     17 C           8.9453    0.4050    0.0000 C.3     1  UNL1       -0.0561
     18 C           8.4353   -0.4552    0.0000 C.3     1  UNL1       -0.0561
     19 C           2.5033   -1.1149    0.0000 C.2     1  UNL1       -0.0852
     20 C           2.0000   -0.2508    0.0000 C.2     1  UNL1       -0.1021
     21 H           5.3099   -1.9402    0.0000 H       1  UNL1        0.0309
     22 H           6.9022    0.8404    0.0000 H       1  UNL1        0.0351
     23 H           4.8140    0.9142    0.0000 H       1  UNL1        0.0271
     24 H           4.0158    0.9234    0.0000 H       1  UNL1        0.0271
     25 H           4.0158   -2.1039    0.0000 H       1  UNL1        0.0276
     26 H           4.8140   -2.0947    0.0000 H       1  UNL1        0.0276
     27 H           5.7708   -2.0652    0.0000 H       1  UNL1        0.0310
     28 H           6.5679   -2.0652    0.0000 H       1  UNL1        0.0310
     29 H           3.2943    0.5143    0.0000 H       1  UNL1        0.0274
     30 H           2.8925   -0.1755    0.0000 H       1  UNL1        0.0274
     31 H           5.9353    2.0317    0.0000 H       1  UNL1        0.0271
     32 H           5.5442    1.3358    0.0000 H       1  UNL1        0.0271
     33 H           5.9233    0.9098    0.0000 H       1  UNL1        0.0235
     34 H           5.3033    1.5298    0.0000 H       1  UNL1        0.0235
     35 H           4.6833    0.9098    0.0000 H       1  UNL1        0.0235
     36 H           7.5723   -1.4002    0.0000 H       1  UNL1        0.0572
     37 H           8.5634    1.3474    0.0000 H       1  UNL1        0.0273
     38 H           8.1670    2.0403    0.0000 H       1  UNL1        0.0273
     39 H           7.4486    2.4550    0.0000 H       1  UNL1        0.0266
     40 H           6.6504    2.4519    0.0000 H       1  UNL1        0.0266
     41 H           2.4685   -1.6711    0.0000 H       1  UNL1        0.0238
     42 H           2.6987   -2.5171    0.0000 H       1  UNL1        0.0238
     43 H           3.5448   -2.2869    0.0000 H       1  UNL1        0.0238
     44 H           8.9382   -0.2149    0.0000 H       1  UNL1        0.0238
     45 H           9.5653    0.3979    0.0000 H       1  UNL1        0.0238
     46 H           8.9525    1.0250    0.0000 H       1  UNL1        0.0238
     47 H           7.8949   -0.7589    0.0000 H       1  UNL1        0.0238
     48 H           8.7391   -0.9956    0.0000 H       1  UNL1        0.0238
     49 H           8.9758   -0.1514    0.0000 H       1  UNL1        0.0238
     50 H           2.1954   -1.6530    0.0000 H       1  UNL1        0.0572
     51 H           2.3079    0.2873    0.0000 H       1  UNL1        0.0532
     52 H           1.3800   -0.2532    0.0000 H       1  UNL1        0.0532
@<TRIPOS>BOND
     1     1     2    1
     2     1     3    1
     3     1     4    1
     4     1    12    1
     5     2     5    1
     6     2     8    1
     7     2    21    1
     8     3     6    1
     9     3    11    1
    10     3    22    1
    11     4     9    1
    12     4    23    1
    13     4    24    1
    14     5     7    1
    15     5    25    1
    16     5    26    1
    17     6    10    1
    18     6    13    2
    19     7     9    1
    20     7    16    1
    21     7    19    1
    22     8    13    1
    23     8    27    1
    24     8    28    1
    25     9    29    1
    26     9    30    1
    27    10    14    1
    28    10    17    1
    29    10    18    1
    30    11    15    1
    31    11    31    1
    32    11    32    1
    33    12    33    1
    34    12    34    1
    35    12    35    1
    36    13    36    1
    37    14    15    1
    38    14    37    1
    39    14    38    1
    40    15    39    1
    41    15    40    1
    42    16    41    1
    43    16    42    1
    44    16    43    1
    45    17    44    1
    46    17    45    1
    47    17    46    1
    48    18    47    1
    49    18    48    1
    50    18    49    1
    51    19    20    2
    52    19    50    1
    53    20    51    1
    54    20    52    1
