@<TRIPOS>MOLECULE
IMPHY013763
 24 24 0 0 0
SMALL
GASTEIGER

@<TRIPOS>ATOM
      1 O           2.0000   -1.4330    0.0000 O.2     1  UNL1       -0.2970
      2 C           3.7320    0.5670    0.0000 C.3     1  UNL1       -0.0100
      3 C           2.8660    0.0670    0.0000 C.3     1  UNL1        0.0147
      4 C           4.5981    0.0670    0.0000 C.2     1  UNL1       -0.0786
      5 C           4.5981   -0.9330    0.0000 C.2     1  UNL1       -0.0689
      6 C           4.2320    1.4330    0.0000 C.3     1  UNL1       -0.0560
      7 C           3.2320    1.4330    0.0000 C.3     1  UNL1       -0.0560
      8 C           3.7320   -1.4330    0.0000 C.3     1  UNL1        0.0268
      9 C           2.8660   -0.9330    0.0000 C.2     1  UNL1        0.1381
     10 C           5.4641   -1.4330    0.0000 C.3     1  UNL1       -0.0434
     11 H           2.6540    0.6496    0.0000 H       1  UNL1        0.0350
     12 H           2.2554   -0.0407    0.0000 H       1  UNL1        0.0350
     13 H           5.1350    0.3770    0.0000 H       1  UNL1        0.0577
     14 H           3.3335   -1.9080    0.0000 H       1  UNL1        0.0387
     15 H           4.1306   -1.9080    0.0000 H       1  UNL1        0.0387
     16 H           4.7690    1.1230    0.0000 H       1  UNL1        0.0238
     17 H           4.5420    1.9700    0.0000 H       1  UNL1        0.0238
     18 H           3.6951    1.7430    0.0000 H       1  UNL1        0.0238
     19 H           3.7690    1.7430    0.0000 H       1  UNL1        0.0238
     20 H           2.9220    1.9700    0.0000 H       1  UNL1        0.0238
     21 H           2.6951    1.1230    0.0000 H       1  UNL1        0.0238
     22 H           5.1541   -1.9700    0.0000 H       1  UNL1        0.0274
     23 H           6.0010   -1.7430    0.0000 H       1  UNL1        0.0274
     24 H           5.7741   -0.8961    0.0000 H       1  UNL1        0.0274
@<TRIPOS>BOND
     1     1     9    2
     2     2     3    1
     3     2     4    1
     4     2     6    1
     5     2     7    1
     6     3     9    1
     7     3    11    1
     8     3    12    1
     9     4     5    2
    10     4    13    1
    11     5     8    1
    12     5    10    1
    13     6    16    1
    14     6    17    1
    15     6    18    1
    16     7    19    1
    17     7    20    1
    18     7    21    1
    19     8     9    1
    20     8    14    1
    21     8    15    1
    22    10    22    1
    23    10    23    1
    24    10    24    1
