@<TRIPOS>MOLECULE
IMPHY013575
 42 43 0 0 0
SMALL
GASTEIGER

@<TRIPOS>ATOM
      1 O           2.6176   -3.5949    0.0000 O.3     1  UNL1       -0.3912
      2 C           4.4130   -2.0966    0.0000 C.3     1  UNL1       -0.0004
      3 C           3.9352   -0.1481    0.0000 C.3     1  UNL1       -0.0211
      4 C           4.6718   -1.1307    0.0000 C.3     1  UNL1       -0.0327
      5 C           3.0403   -2.6886    0.0000 C.3     1  UNL1        0.0614
      6 C           5.8119   -2.6054    0.0000 C.3     1  UNL1       -0.0445
      7 C           2.6982   -1.7489    0.0000 C.3     1  UNL1       -0.0230
      8 C           6.0707   -1.6395    0.0000 C.3     1  UNL1       -0.0490
      9 C           4.0397    0.8465    0.0000 C.3     1  UNL1       -0.0433
     10 C           4.1541   -3.0625    0.0000 C.3     1  UNL1       -0.0567
     11 C           3.0216    0.2587    0.0000 C.3     1  UNL1       -0.0587
     12 C           4.9532    1.2532    0.0000 C.3     1  UNL1       -0.0340
     13 C           5.0578    2.2477    0.0000 C.2     1  UNL1       -0.0853
     14 C           5.9713    2.6545    0.0000 C.2     1  UNL1       -0.0796
     15 C           6.0758    3.6490    0.0000 C.3     1  UNL1       -0.0440
     16 C           6.7803    2.0667    0.0000 C.3     1  UNL1       -0.0440
     17 H           4.6578   -1.7505    0.0000 H       1  UNL1        0.0307
     18 H           3.4722   -3.1334    0.0000 H       1  UNL1        0.0599
     19 H           5.6170   -3.1940    0.0000 H       1  UNL1        0.0272
     20 H           6.4059   -2.7832    0.0000 H       1  UNL1        0.0272
     21 H           2.5040   -1.1602    0.0000 H       1  UNL1        0.0293
     22 H           2.1125   -1.9521    0.0000 H       1  UNL1        0.0293
     23 H           6.6647   -1.8173    0.0000 H       1  UNL1        0.0268
     24 H           6.2656   -1.0509    0.0000 H       1  UNL1        0.0268
     25 H           3.8897    1.4480    0.0000 H       1  UNL1        0.0274
     26 H           3.4212    0.8032    0.0000 H       1  UNL1        0.0274
     27 H           3.5553   -2.9021    0.0000 H       1  UNL1        0.0236
     28 H           3.9937   -3.6614    0.0000 H       1  UNL1        0.0236
     29 H           4.7530   -3.2230    0.0000 H       1  UNL1        0.0236
     30 H           3.2738    0.8251    0.0000 H       1  UNL1        0.0235
     31 H           2.4552    0.5108    0.0000 H       1  UNL1        0.0235
     32 H           2.7694   -0.3077    0.0000 H       1  UNL1        0.0235
     33 H           5.1032    0.6516    0.0000 H       1  UNL1        0.0308
     34 H           5.5717    1.2964    0.0000 H       1  UNL1        0.0308
     35 H           2.0000   -3.6490    0.0000 H       1  UNL1        0.2098
     36 H           4.5562    2.6121    0.0000 H       1  UNL1        0.0571
     37 H           6.6924    3.5842    0.0000 H       1  UNL1        0.0274
     38 H           6.1406    4.2656    0.0000 H       1  UNL1        0.0274
     39 H           5.4592    3.7138    0.0000 H       1  UNL1        0.0274
     40 H           6.4159    1.5651    0.0000 H       1  UNL1        0.0274
     41 H           7.2819    1.7022    0.0000 H       1  UNL1        0.0274
     42 H           7.1448    2.5683    0.0000 H       1  UNL1        0.0274
@<TRIPOS>BOND
     1     5     1    1
     2     1    35    1
     3     2     3    1
     4     2     5    1
     5     2     6    1
     6     2    10    1
     7     3     4    1
     8     3     9    1
     9     3    11    1
    10     4     7    1
    11     4     8    1
    12     4    17    1
    13     5     7    1
    14     5    18    1
    15     6     8    1
    16     6    19    1
    17     6    20    1
    18     7    21    1
    19     7    22    1
    20     8    23    1
    21     8    24    1
    22     9    12    1
    23     9    25    1
    24     9    26    1
    25    10    27    1
    26    10    28    1
    27    10    29    1
    28    11    30    1
    29    11    31    1
    30    11    32    1
    31    12    13    1
    32    12    33    1
    33    12    34    1
    34    13    14    2
    35    13    36    1
    36    14    15    1
    37    14    16    1
    38    15    37    1
    39    15    38    1
    40    15    39    1
    41    16    40    1
    42    16    41    1
    43    16    42    1
