@<TRIPOS>MOLECULE
IMPHY002995
 83 87 0 0 0
SMALL
GASTEIGER

@<TRIPOS>ATOM
      1 O           5.6328   -3.2463    0.0000 O.3     1  UNL1       -0.3911
      2 O          10.9848    2.9673    0.0000 O.3     1  UNL1       -0.3912
      3 O           3.7953   -3.2752    0.0000 O.3     1  UNL1       -0.3871
      4 C           7.3770   -0.1771    0.0000 C.3     1  UNL1       -0.0230
      5 C           6.5109   -0.6771    0.0000 C.3     1  UNL1       -0.0209
      6 C           7.3770    0.8229    0.0000 C.3     1  UNL1       -0.0294
      7 C           5.6449   -0.1771    0.0000 C.3     1  UNL1       -0.0310
      8 C           8.2709    1.3576    0.0000 C.3     1  UNL1       -0.0252
      9 C           9.1770    0.8437    0.0000 C.3     1  UNL1       -0.0278
     10 C           4.7349   -0.6839    0.0000 C.3     1  UNL1       -0.0210
     11 C           8.2709   -0.7117    0.0000 C.3     1  UNL1       -0.0466
     12 C           6.5109    1.3229    0.0000 C.3     1  UNL1       -0.0489
     13 C           6.5270   -1.7186    0.0000 C.3     1  UNL1       -0.0201
     14 C           4.7269   -1.7255    0.0000 C.3     1  UNL1        0.0270
     15 C           5.6449    0.8229    0.0000 C.3     1  UNL1       -0.0491
     16 C           9.1770   -0.1979    0.0000 C.3     1  UNL1       -0.0486
     17 C           5.6290   -2.2463    0.0000 C.3     1  UNL1        0.0641
     18 C          10.1208    1.3790    0.0000 C.3     1  UNL1       -0.0056
     19 C           8.2458    2.4423    0.0000 C.3     1  UNL1       -0.0447
     20 C           7.7191   -1.1167    0.0000 C.3     1  UNL1       -0.0588
     21 C           7.1537   -1.4431    0.0000 C.3     1  UNL1       -0.0587
     22 C           3.8081   -0.1198    0.0000 C.3     1  UNL1       -0.0191
     23 C           7.4010    1.8509    0.0000 C.3     1  UNL1       -0.0590
     24 C          10.1208    2.4640    0.0000 C.3     1  UNL1        0.0606
     25 C           9.1770    2.9992    0.0000 C.3     1  UNL1       -0.0258
     26 C           3.7914   -2.2752    0.0000 C.3     1  UNL1        0.0816
     27 C           4.7192   -2.7255    0.0000 C.3     1  UNL1       -0.0542
     28 C           2.8602   -0.6478    0.0000 C.2     1  UNL1       -0.0710
     29 C          11.1207    1.3751    0.0000 C.3     1  UNL1       -0.0572
     30 C          10.6174    0.5110    0.0000 C.3     1  UNL1       -0.0572
     31 C           2.8518   -1.7328    0.0000 C.2     1  UNL1       -0.0560
     32 C           3.8273    0.8800    0.0000 C.3     1  UNL1       -0.0584
     33 C           2.0000   -0.1378    0.0000 C.3     1  UNL1       -0.0434
     34 H           8.1163    0.4036    0.0000 H       1  UNL1        0.0312
     35 H           6.3810    0.2479    0.0000 H       1  UNL1        0.0309
     36 H           9.9114    0.4159    0.0000 H       1  UNL1        0.0312
     37 H           4.7513    0.1659    0.0000 H       1  UNL1        0.0316
     38 H           7.8663   -1.1815    0.0000 H       1  UNL1        0.0271
     39 H           8.6645   -1.1908    0.0000 H       1  UNL1        0.0271
     40 H           6.9095    1.7979    0.0000 H       1  UNL1        0.0268
     41 H           6.1124    1.7979    0.0000 H       1  UNL1        0.0268
     42 H           6.7450   -2.2990    0.0000 H       1  UNL1        0.0296
     43 H           7.1361   -1.6031    0.0000 H       1  UNL1        0.0296
     44 H           5.4329    1.4055    0.0000 H       1  UNL1        0.0268
     45 H           5.0343    0.7153    0.0000 H       1  UNL1        0.0268
     46 H           9.3860   -0.7816    0.0000 H       1  UNL1        0.0268
     47 H           9.7878   -0.0918    0.0000 H       1  UNL1        0.0268
     48 H           6.1677   -2.5532    0.0000 H       1  UNL1        0.0600
     49 H           8.0233    3.0210    0.0000 H       1  UNL1        0.0271
     50 H           7.6376    2.3221    0.0000 H       1  UNL1        0.0271
     51 H           7.1365   -1.3288    0.0000 H       1  UNL1        0.0235
     52 H           7.9312   -1.6993    0.0000 H       1  UNL1        0.0235
     53 H           8.3017   -0.9046    0.0000 H       1  UNL1        0.0235
     54 H           6.6788   -1.8416    0.0000 H       1  UNL1        0.0235
     55 H           7.5522   -1.9181    0.0000 H       1  UNL1        0.0235
     56 H           7.6287   -1.0446    0.0000 H       1  UNL1        0.0235
     57 H           4.3515    0.1787    0.0000 H       1  UNL1        0.0346
     58 H           7.7069    2.3902    0.0000 H       1  UNL1        0.0235
     59 H           6.8617    2.1568    0.0000 H       1  UNL1        0.0235
     60 H           7.0952    1.3116    0.0000 H       1  UNL1        0.0235
     61 H          10.6583    2.1550    0.0000 H       1  UNL1        0.0599
     62 H           9.5706    3.4782    0.0000 H       1  UNL1        0.0290
     63 H           8.7724    3.4690    0.0000 H       1  UNL1        0.0290
     64 H           4.3302   -2.5821    0.0000 H       1  UNL1        0.0644
     65 H           4.0992   -2.7207    0.0000 H       1  UNL1        0.0237
     66 H           4.7144   -3.3455    0.0000 H       1  UNL1        0.0237
     67 H           5.3392   -2.7303    0.0000 H       1  UNL1        0.0237
     68 H          11.1184    0.7551    0.0000 H       1  UNL1        0.0236
     69 H          11.7407    1.3727    0.0000 H       1  UNL1        0.0236
     70 H          11.1231    1.9951    0.0000 H       1  UNL1        0.0236
     71 H          10.0793    0.2031    0.0000 H       1  UNL1        0.0236
     72 H          10.9253   -0.0271    0.0000 H       1  UNL1        0.0236
     73 H          11.1555    0.8190    0.0000 H       1  UNL1        0.0236
     74 H           2.3137   -2.0407    0.0000 H       1  UNL1        0.0597
     75 H           4.4472    0.8680    0.0000 H       1  UNL1        0.0236
     76 H           3.8393    1.4999    0.0000 H       1  UNL1        0.0236
     77 H           3.2075    0.8919    0.0000 H       1  UNL1        0.0236
     78 H           6.1709   -3.5543    0.0000 H       1  UNL1        0.2098
     79 H          10.9825    3.5873    0.0000 H       1  UNL1        0.2098
     80 H           3.2596   -3.5873    0.0000 H       1  UNL1        0.2102
     81 H           2.3162    0.3955    0.0000 H       1  UNL1        0.0274
     82 H           1.4667    0.1784    0.0000 H       1  UNL1        0.0274
     83 H           1.6838   -0.6711    0.0000 H       1  UNL1        0.0274
@<TRIPOS>BOND
     1    17     1    1
     2     1    78    1
     3    24     2    1
     4     2    79    1
     5    26     3    1
     6     3    80    1
     7     4     5    1
     8     4     6    1
     9     4    11    1
    10     4    20    1
    11     5     7    1
    12     5    13    1
    13     5    21    1
    14     6     8    1
    15     6    12    1
    16     6    34    1
    17     7    10    1
    18     7    15    1
    19     7    35    1
    20     8     9    1
    21     8    19    1
    22     8    23    1
    23     9    16    1
    24     9    18    1
    25     9    36    1
    26    10    14    1
    27    10    22    1
    28    10    37    1
    29    11    16    1
    30    11    38    1
    31    11    39    1
    32    12    15    1
    33    12    40    1
    34    12    41    1
    35    13    17    1
    36    13    42    1
    37    13    43    1
    38    14    17    1
    39    14    26    1
    40    14    27    1
    41    15    44    1
    42    15    45    1
    43    16    46    1
    44    16    47    1
    45    17    48    1
    46    18    24    1
    47    18    29    1
    48    18    30    1
    49    19    25    1
    50    19    49    1
    51    19    50    1
    52    20    51    1
    53    20    52    1
    54    20    53    1
    55    21    54    1
    56    21    55    1
    57    21    56    1
    58    22    28    1
    59    22    32    1
    60    22    57    1
    61    23    58    1
    62    23    59    1
    63    23    60    1
    64    24    25    1
    65    24    61    1
    66    25    62    1
    67    25    63    1
    68    26    31    1
    69    26    64    1
    70    27    65    1
    71    27    66    1
    72    27    67    1
    73    28    31    2
    74    28    33    1
    75    29    68    1
    76    29    69    1
    77    29    70    1
    78    30    71    1
    79    30    72    1
    80    30    73    1
    81    31    74    1
    82    32    75    1
    83    32    76    1
    84    32    77    1
    85    33    81    1
    86    33    82    1
    87    33    83    1
