@<TRIPOS>MOLECULE
IMPHY001201
 85 85 0 0 0
SMALL
GASTEIGER

@<TRIPOS>ATOM
      1 O           4.2690   -5.0950    0.0000 O.3     1  UNL1       -0.3405
      2 O           6.0010   -5.0950    0.0000 O.3     1  UNL1       -0.3470
      3 O           4.2690   -8.0950    0.0000 O.3     1  UNL1       -0.3864
      4 O           2.5369   -7.0950    0.0000 O.3     1  UNL1       -0.3865
      5 O           6.0010   -7.0950    0.0000 O.3     1  UNL1       -0.3841
      6 O           2.5369   -4.0950    0.0000 O.3     1  UNL1       -0.3924
      7 O           6.0010   -2.0950    0.0000 O.3     1  UNL1       -0.3861
      8 N           7.7331   -4.0950    0.0000 N.3     1  UNL1       -0.3008
      9 C           4.2690   -7.0950    0.0000 C.3     1  UNL1        0.1141
     10 C           3.4030   -6.5950    0.0000 C.3     1  UNL1        0.1119
     11 C           5.1350   -6.5950    0.0000 C.3     1  UNL1        0.1341
     12 C           3.4030   -5.5950    0.0000 C.3     1  UNL1        0.1130
     13 C           5.1350   -5.5950    0.0000 C.3     1  UNL1        0.1880
     14 C           2.5369   -5.0950    0.0000 C.3     1  UNL1        0.0730
     15 C           6.8671   -3.5950    0.0000 C.3     1  UNL1        0.0630
     16 C           6.0010   -4.0950    0.0000 C.3     1  UNL1        0.0690
     17 C           6.8671   -2.5950    0.0000 C.3     1  UNL1        0.0910
     18 C          10.3312    2.4050    0.0000 C.3     1  UNL1       -0.0531
     19 C          10.3312    3.4050    0.0000 C.3     1  UNL1       -0.0531
     20 C           9.4651    1.9050    0.0000 C.3     1  UNL1       -0.0530
     21 C          11.1972    3.9050    0.0000 C.3     1  UNL1       -0.0531
     22 C           9.4651    0.9050    0.0000 C.3     1  UNL1       -0.0528
     23 C          11.1972    4.9050    0.0000 C.3     1  UNL1       -0.0531
     24 C           7.7331   -2.0950    0.0000 C.2     1  UNL1       -0.0583
     25 C           8.5991    0.4050    0.0000 C.3     1  UNL1       -0.0496
     26 C          12.0632    5.4050    0.0000 C.3     1  UNL1       -0.0531
     27 C           8.5991   -0.5950    0.0000 C.3     1  UNL1       -0.0347
     28 C           8.5991   -3.5950    0.0000 C.3     1  UNL1       -0.0126
     29 C           7.7331   -5.0950    0.0000 C.3     1  UNL1       -0.0126
     30 C          12.0632    6.4050    0.0000 C.3     1  UNL1       -0.0531
     31 C           7.7331   -1.0950    0.0000 C.2     1  UNL1       -0.0855
     32 C          12.9292    6.9050    0.0000 C.3     1  UNL1       -0.0533
     33 C          12.9292    7.9050    0.0000 C.3     1  UNL1       -0.0559
     34 C          13.7953    8.4050    0.0000 C.3     1  UNL1       -0.0653
     35 H           4.8059   -7.4050    0.0000 H       1  UNL1        0.0648
     36 H           3.4030   -7.2150    0.0000 H       1  UNL1        0.0647
     37 H           5.6720   -6.2850    0.0000 H       1  UNL1        0.0671
     38 H           3.4030   -4.9750    0.0000 H       1  UNL1        0.0647
     39 H           5.1350   -4.9750    0.0000 H       1  UNL1        0.0937
     40 H           1.9264   -4.9873    0.0000 H       1  UNL1        0.0584
     41 H           2.3249   -5.6776    0.0000 H       1  UNL1        0.0584
     42 H           6.8671   -4.2150    0.0000 H       1  UNL1        0.0514
     43 H           5.7890   -3.5124    0.0000 H       1  UNL1        0.0577
     44 H           5.3905   -4.2027    0.0000 H       1  UNL1        0.0577
     45 H           6.3301   -2.9050    0.0000 H       1  UNL1        0.0654
     46 H           3.7320   -8.4050    0.0000 H       1  UNL1        0.2100
     47 H           2.0000   -6.7850    0.0000 H       1  UNL1        0.2100
     48 H           6.5380   -6.7850    0.0000 H       1  UNL1        0.2101
     49 H          10.5432    1.8224    0.0000 H       1  UNL1        0.0265
     50 H          10.9417    2.5127    0.0000 H       1  UNL1        0.0265
     51 H          10.1191    3.9876    0.0000 H       1  UNL1        0.0265
     52 H           9.7206    3.2973    0.0000 H       1  UNL1        0.0265
     53 H           9.2531    2.4876    0.0000 H       1  UNL1        0.0265
     54 H           8.8546    1.7973    0.0000 H       1  UNL1        0.0265
     55 H          11.4092    3.3224    0.0000 H       1  UNL1        0.0265
     56 H          11.8078    4.0127    0.0000 H       1  UNL1        0.0265
     57 H           9.6772    0.3224    0.0000 H       1  UNL1        0.0265
     58 H          10.0757    1.0127    0.0000 H       1  UNL1        0.0265
     59 H          10.9851    5.4876    0.0000 H       1  UNL1        0.0265
     60 H          10.5866    4.7973    0.0000 H       1  UNL1        0.0265
     61 H           8.2700   -2.4050    0.0000 H       1  UNL1        0.0595
     62 H           8.3871    0.9876    0.0000 H       1  UNL1        0.0268
     63 H           7.9885    0.2973    0.0000 H       1  UNL1        0.0268
     64 H          12.2753    4.8224    0.0000 H       1  UNL1        0.0265
     65 H          12.6738    5.5127    0.0000 H       1  UNL1        0.0265
     66 H           8.8112   -1.1776    0.0000 H       1  UNL1        0.0307
     67 H           9.2097   -0.4873    0.0000 H       1  UNL1        0.0307
     68 H           2.0000   -3.7850    0.0000 H       1  UNL1        0.2095
     69 H           8.9091   -4.1319    0.0000 H       1  UNL1        0.0391
     70 H           7.1131   -5.0950    0.0000 H       1  UNL1        0.0391
     71 H           7.7331   -5.7150    0.0000 H       1  UNL1        0.0391
     72 H           8.3531   -5.0950    0.0000 H       1  UNL1        0.0391
     73 H           9.1360   -3.2850    0.0000 H       1  UNL1        0.0391
     74 H           8.2891   -3.0581    0.0000 H       1  UNL1        0.0391
     75 H          11.8512    6.9876    0.0000 H       1  UNL1        0.0265
     76 H          11.4526    6.2973    0.0000 H       1  UNL1        0.0265
     77 H           7.1962   -0.7850    0.0000 H       1  UNL1        0.0570
     78 H          13.1413    6.3224    0.0000 H       1  UNL1        0.0265
     79 H          13.5398    7.0127    0.0000 H       1  UNL1        0.0265
     80 H           6.0010   -1.4750    0.0000 H       1  UNL1        0.2103
     81 H          12.7172    8.4876    0.0000 H       1  UNL1        0.0263
     82 H          12.3187    7.7973    0.0000 H       1  UNL1        0.0263
     83 H          14.1053    7.8681    0.0000 H       1  UNL1        0.0230
     84 H          14.3322    8.7150    0.0000 H       1  UNL1        0.0230
     85 H          13.4853    8.9419    0.0000 H       1  UNL1        0.0230
@<TRIPOS>BOND
     1     1    12    1
     2     1    13    1
     3    13     2    1
     4     2    16    1
     5     9     3    1
     6     3    46    1
     7    10     4    1
     8     4    47    1
     9    11     5    1
    10     5    48    1
    11     6    14    1
    12     6    68    1
    13    17     7    1
    14     7    80    1
    15    15     8    1
    16     8    28    1
    17     8    29    1
    18     9    10    1
    19     9    11    1
    20     9    35    1
    21    10    12    1
    22    10    36    1
    23    11    13    1
    24    11    37    1
    25    12    14    1
    26    12    38    1
    27    13    39    1
    28    14    40    1
    29    14    41    1
    30    15    16    1
    31    15    17    1
    32    15    42    1
    33    16    43    1
    34    16    44    1
    35    17    24    1
    36    17    45    1
    37    18    19    1
    38    18    20    1
    39    18    49    1
    40    18    50    1
    41    19    21    1
    42    19    51    1
    43    19    52    1
    44    20    22    1
    45    20    53    1
    46    20    54    1
    47    21    23    1
    48    21    55    1
    49    21    56    1
    50    22    25    1
    51    22    57    1
    52    22    58    1
    53    23    26    1
    54    23    59    1
    55    23    60    1
    56    24    31    2
    57    24    61    1
    58    25    27    1
    59    25    62    1
    60    25    63    1
    61    26    30    1
    62    26    64    1
    63    26    65    1
    64    27    31    1
    65    27    66    1
    66    27    67    1
    67    28    69    1
    68    28    73    1
    69    28    74    1
    70    29    70    1
    71    29    71    1
    72    29    72    1
    73    30    32    1
    74    30    75    1
    75    30    76    1
    76    31    77    1
    77    32    33    1
    78    32    78    1
    79    32    79    1
    80    33    34    1
    81    33    81    1
    82    33    82    1
    83    34    83    1
    84    34    84    1
    85    34    85    1
