@<TRIPOS>MOLECULE
IMPHY003987
 45 46 0 0 0
SMALL
GASTEIGER

@<TRIPOS>ATOM
      1 O           5.1350   -1.0950    0.0000 O.3     1  UNL1       -0.3313
      2 O           6.8671   -1.0950    0.0000 O.3     1  UNL1       -0.4572
      3 O           5.1350   -4.0950    0.0000 O.3     1  UNL1       -0.3864
      4 O           3.4030   -3.0950    0.0000 O.3     1  UNL1       -0.3865
      5 O           6.8671   -3.0950    0.0000 O.3     1  UNL1       -0.3829
      6 O           2.5369   -1.5950    0.0000 O.3     1  UNL1       -0.3924
      7 O           8.5991   -0.0950    0.0000 O.3     1  UNL1       -0.4914
      8 C           5.1350   -3.0950    0.0000 C.3     1  UNL1        0.1152
      9 C           4.2690   -2.5950    0.0000 C.3     1  UNL1        0.1120
     10 C           6.0010   -2.5950    0.0000 C.3     1  UNL1        0.1454
     11 C           4.2690   -1.5950    0.0000 C.3     1  UNL1        0.1140
     12 C           6.0010   -1.5950    0.0000 C.3     1  UNL1        0.2310
     13 C           3.4030   -1.0950    0.0000 C.3     1  UNL1        0.0731
     14 C           6.8671   -0.0950    0.0000 C.ar    1  UNL1        0.1654
     15 C           7.7331    0.4050    0.0000 C.ar    1  UNL1        0.1619
     16 C           6.0010    0.4050    0.0000 C.ar    1  UNL1       -0.0159
     17 C           6.8671    1.9050    0.0000 C.ar    1  UNL1       -0.0400
     18 C           7.7331    1.4050    0.0000 C.ar    1  UNL1       -0.0128
     19 C           6.0010    1.4050    0.0000 C.ar    1  UNL1       -0.0546
     20 C           6.8671    2.9050    0.0000 C.3     1  UNL1       -0.0096
     21 C           7.7331    3.4050    0.0000 C.2     1  UNL1       -0.0868
     22 C           9.4651    0.4050    0.0000 C.3     1  UNL1        0.0790
     23 C           7.7331    4.4050    0.0000 C.2     1  UNL1       -0.1023
     24 H           5.6720   -3.4050    0.0000 H       1  UNL1        0.0648
     25 H           4.2690   -3.2150    0.0000 H       1  UNL1        0.0647
     26 H           6.5380   -2.2850    0.0000 H       1  UNL1        0.0683
     27 H           4.2690   -0.9750    0.0000 H       1  UNL1        0.0647
     28 H           6.0010   -0.9750    0.0000 H       1  UNL1        0.1084
     29 H           3.8015   -0.6201    0.0000 H       1  UNL1        0.0584
     30 H           3.0044   -0.6201    0.0000 H       1  UNL1        0.0584
     31 H           4.5981   -4.4050    0.0000 H       1  UNL1        0.2100
     32 H           3.4030   -3.7150    0.0000 H       1  UNL1        0.2100
     33 H           6.8671   -3.7150    0.0000 H       1  UNL1        0.2102
     34 H           2.0000   -1.2850    0.0000 H       1  UNL1        0.2095
     35 H           5.4641    0.0950    0.0000 H       1  UNL1        0.0655
     36 H           8.2700    1.7150    0.0000 H       1  UNL1        0.0658
     37 H           5.4641    1.7150    0.0000 H       1  UNL1        0.0622
     38 H           6.6550    3.4876    0.0000 H       1  UNL1        0.0355
     39 H           6.2565    2.7973    0.0000 H       1  UNL1        0.0355
     40 H           8.2700    3.0950    0.0000 H       1  UNL1        0.0570
     41 H           9.7751   -0.1319    0.0000 H       1  UNL1        0.0660
     42 H          10.0021    0.7150    0.0000 H       1  UNL1        0.0660
     43 H           9.1551    0.9419    0.0000 H       1  UNL1        0.0660
     44 H           8.2700    4.7150    0.0000 H       1  UNL1        0.0532
     45 H           7.1962    4.7150    0.0000 H       1  UNL1        0.0532
@<TRIPOS>BOND
     1     1    11    1
     2     1    12    1
     3    12     2    1
     4     2    14    1
     5     8     3    1
     6     3    31    1
     7     9     4    1
     8     4    32    1
     9    10     5    1
    10     5    33    1
    11     6    13    1
    12     6    34    1
    13     7    15    1
    14     7    22    1
    15     8     9    1
    16     8    10    1
    17     8    24    1
    18     9    11    1
    19     9    25    1
    20    10    12    1
    21    10    26    1
    22    11    13    1
    23    11    27    1
    24    12    28    1
    25    13    29    1
    26    13    30    1
    27    14    15   ar
    28    14    16   ar
    29    15    18   ar
    30    16    19   ar
    31    16    35    1
    32    17    18   ar
    33    17    19   ar
    34    17    20    1
    35    18    36    1
    36    19    37    1
    37    20    21    1
    38    20    38    1
    39    20    39    1
    40    21    23    2
    41    21    40    1
    42    22    41    1
    43    22    42    1
    44    22    43    1
    45    23    44    1
    46    23    45    1
