@<TRIPOS>MOLECULE
IMPHY006086
 64 66 0 0 0
SMALL
GASTEIGER

@<TRIPOS>ATOM
      1 O           6.8671    1.7500    0.0000 O.3     1  UNL1       -0.3827
      2 O           7.7331   -1.7500    0.0000 O.3     1  UNL1       -0.3827
      3 O          12.1434   -0.0547    0.0000 O.3     1  UNL1       -0.4525
      4 O          12.1434    1.5547    0.0000 O.3     1  UNL1       -0.4489
      5 O          10.3312    2.7500    0.0000 O.3     1  UNL1       -0.4913
      6 O           4.2690   -2.7500    0.0000 O.3     1  UNL1       -0.4913
      7 O           2.5369    0.2500    0.0000 O.3     1  UNL1       -0.4913
      8 O           2.5369   -1.7500    0.0000 O.3     1  UNL1       -0.5009
      9 C           7.7331    0.2500    0.0000 C.3     1  UNL1       -0.0084
     10 C           6.8671   -0.2500    0.0000 C.3     1  UNL1       -0.0084
     11 C           8.5991   -0.2500    0.0000 C.3     1  UNL1       -0.0222
     12 C           6.0010    0.2500    0.0000 C.3     1  UNL1       -0.0222
     13 C           7.7331    1.2500    0.0000 C.3     1  UNL1        0.0507
     14 C           6.8671   -1.2500    0.0000 C.3     1  UNL1        0.0507
     15 C           9.4651    0.2500    0.0000 C.ar    1  UNL1       -0.0399
     16 C           5.1350   -0.2500    0.0000 C.ar    1  UNL1       -0.0399
     17 C          10.3312   -0.2500    0.0000 C.ar    1  UNL1       -0.0127
     18 C           9.4651    1.2500    0.0000 C.ar    1  UNL1       -0.0129
     19 C           4.2690    0.2500    0.0000 C.ar    1  UNL1       -0.0129
     20 C           5.1350   -1.2500    0.0000 C.ar    1  UNL1       -0.0129
     21 C          11.1972    0.2500    0.0000 C.ar    1  UNL1        0.1702
     22 C          10.3312    1.7500    0.0000 C.ar    1  UNL1        0.1656
     23 C          11.1972    1.2500    0.0000 C.ar    1  UNL1        0.2075
     24 C           4.2690   -1.7500    0.0000 C.ar    1  UNL1        0.1652
     25 C           3.4030   -0.2500    0.0000 C.ar    1  UNL1        0.1652
     26 C           6.8671    2.7500    0.0000 C.3     1  UNL1        0.0365
     27 C           7.7331   -2.7500    0.0000 C.3     1  UNL1        0.0365
     28 C           3.4030   -1.2500    0.0000 C.ar    1  UNL1        0.2010
     29 C          12.7270    0.7500    0.0000 C.3     1  UNL1        0.2334
     30 C           9.4651    3.2500    0.0000 C.3     1  UNL1        0.0790
     31 C           3.4030   -3.2500    0.0000 C.3     1  UNL1        0.0790
     32 C           2.5369    1.2500    0.0000 C.3     1  UNL1        0.0790
     33 H           7.7331   -0.3700    0.0000 H       1  UNL1        0.0330
     34 H           6.3301   -0.5600    0.0000 H       1  UNL1        0.0330
     35 H           8.2006   -0.7249    0.0000 H       1  UNL1        0.0317
     36 H           8.9976   -0.7249    0.0000 H       1  UNL1        0.0317
     37 H           6.3996    0.7249    0.0000 H       1  UNL1        0.0317
     38 H           5.6025    0.7249    0.0000 H       1  UNL1        0.0317
     39 H           8.3437    1.1423    0.0000 H       1  UNL1        0.0562
     40 H           7.9451    1.8326    0.0000 H       1  UNL1        0.0562
     41 H           6.2565   -1.1423    0.0000 H       1  UNL1        0.0562
     42 H           6.6550   -1.8326    0.0000 H       1  UNL1        0.0562
     43 H          10.3312   -0.8700    0.0000 H       1  UNL1        0.0658
     44 H           8.9282    1.5600    0.0000 H       1  UNL1        0.0658
     45 H           4.2690    0.8700    0.0000 H       1  UNL1        0.0658
     46 H           5.6720   -1.5600    0.0000 H       1  UNL1        0.0658
     47 H           7.4871    2.7500    0.0000 H       1  UNL1        0.0523
     48 H           6.8671    3.3700    0.0000 H       1  UNL1        0.0523
     49 H           6.2471    2.7500    0.0000 H       1  UNL1        0.0523
     50 H           7.1131   -2.7500    0.0000 H       1  UNL1        0.0523
     51 H           7.7331   -3.3700    0.0000 H       1  UNL1        0.0523
     52 H           8.3531   -2.7500    0.0000 H       1  UNL1        0.0523
     53 H          13.1879    0.3353    0.0000 H       1  UNL1        0.1166
     54 H          13.1879    1.1647    0.0000 H       1  UNL1        0.1166
     55 H           2.0000   -1.4400    0.0000 H       1  UNL1        0.2924
     56 H           9.7751    3.7869    0.0000 H       1  UNL1        0.0660
     57 H           8.9282    3.5600    0.0000 H       1  UNL1        0.0660
     58 H           9.1551    2.7131    0.0000 H       1  UNL1        0.0660
     59 H           3.0930   -2.7131    0.0000 H       1  UNL1        0.0660
     60 H           2.8660   -3.5600    0.0000 H       1  UNL1        0.0660
     61 H           3.7130   -3.7869    0.0000 H       1  UNL1        0.0660
     62 H           3.1569    1.2500    0.0000 H       1  UNL1        0.0660
     63 H           2.5369    1.8700    0.0000 H       1  UNL1        0.0660
     64 H           1.9169    1.2500    0.0000 H       1  UNL1        0.0660
@<TRIPOS>BOND
     1     1    13    1
     2     1    26    1
     3     2    14    1
     4     2    27    1
     5     3    21    1
     6     3    29    1
     7     4    23    1
     8     4    29    1
     9     5    22    1
    10     5    30    1
    11     6    24    1
    12     6    31    1
    13     7    25    1
    14     7    32    1
    15     8    28    1
    16     8    55    1
    17     9    10    1
    18     9    11    1
    19     9    13    1
    20     9    33    1
    21    10    12    1
    22    10    14    1
    23    10    34    1
    24    11    15    1
    25    11    35    1
    26    11    36    1
    27    12    16    1
    28    12    37    1
    29    12    38    1
    30    13    39    1
    31    13    40    1
    32    14    41    1
    33    14    42    1
    34    15    17   ar
    35    15    18   ar
    36    16    19   ar
    37    16    20   ar
    38    17    21   ar
    39    17    43    1
    40    18    22   ar
    41    18    44    1
    42    19    25   ar
    43    19    45    1
    44    20    24   ar
    45    20    46    1
    46    21    23   ar
    47    22    23   ar
    48    24    28   ar
    49    25    28   ar
    50    26    47    1
    51    26    48    1
    52    26    49    1
    53    27    50    1
    54    27    51    1
    55    27    52    1
    56    29    53    1
    57    29    54    1
    58    30    56    1
    59    30    57    1
    60    30    58    1
    61    31    59    1
    62    31    60    1
    63    31    61    1
    64    32    62    1
    65    32    63    1
    66    32    64    1
