@<TRIPOS>MOLECULE
IMPHY000112
 61 60 0 0 0
SMALL
GASTEIGER

@<TRIPOS>ATOM
      1 O           2.5369   -0.8660    0.0000 O.3     1  UNL1       -0.3848
      2 C           6.8671   -0.3660    0.0000 C.3     1  UNL1       -0.0439
      3 C          10.3312   -0.3660    0.0000 C.3     1  UNL1       -0.0439
      4 C           7.7331    0.1340    0.0000 C.3     1  UNL1       -0.0505
      5 C           9.4651    0.1340    0.0000 C.3     1  UNL1       -0.0505
      6 C           8.5991   -0.3660    0.0000 C.3     1  UNL1       -0.0526
      7 C           6.0010    0.1340    0.0000 C.3     1  UNL1       -0.0504
      8 C          11.1972    0.1340    0.0000 C.3     1  UNL1       -0.0505
      9 C           5.1350   -0.3660    0.0000 C.3     1  UNL1       -0.0499
     10 C          12.0632   -0.3660    0.0000 C.3     1  UNL1       -0.0526
     11 C          12.9292    0.1340    0.0000 C.3     1  UNL1       -0.0507
     12 C           4.2690    0.1340    0.0000 C.3     1  UNL1       -0.0206
     13 C           6.8671   -1.3660    0.0000 C.3     1  UNL1       -0.0624
     14 C          10.3312   -1.3660    0.0000 C.3     1  UNL1       -0.0624
     15 C          13.7953   -0.3660    0.0000 C.3     1  UNL1       -0.0467
     16 C           3.4030   -0.3660    0.0000 C.3     1  UNL1        0.0811
     17 C          14.6613    0.1340    0.0000 C.3     1  UNL1       -0.0627
     18 C          13.7953   -1.3660    0.0000 C.3     1  UNL1       -0.0627
     19 C           3.9030   -1.2320    0.0000 C.3     1  UNL1       -0.0325
     20 C           2.9030    0.5000    0.0000 C.2     1  UNL1       -0.0602
     21 C           3.4030    1.3660    0.0000 C.2     1  UNL1       -0.1000
     22 H           6.1309   -0.7910    0.0000 H       1  UNL1        0.0298
     23 H          11.0673   -0.7910    0.0000 H       1  UNL1        0.0298
     24 H           8.1316    0.6089    0.0000 H       1  UNL1        0.0268
     25 H           7.3346    0.6089    0.0000 H       1  UNL1        0.0268
     26 H           9.8637    0.6089    0.0000 H       1  UNL1        0.0268
     27 H           9.0666    0.6089    0.0000 H       1  UNL1        0.0268
     28 H           8.2006   -0.8410    0.0000 H       1  UNL1        0.0265
     29 H           8.9976   -0.8410    0.0000 H       1  UNL1        0.0265
     30 H           6.3996    0.6089    0.0000 H       1  UNL1        0.0268
     31 H           5.6025    0.6089    0.0000 H       1  UNL1        0.0268
     32 H          11.5957    0.6089    0.0000 H       1  UNL1        0.0268
     33 H          10.7987    0.6089    0.0000 H       1  UNL1        0.0268
     34 H           4.7365   -0.8410    0.0000 H       1  UNL1        0.0266
     35 H           5.5335   -0.8410    0.0000 H       1  UNL1        0.0266
     36 H          11.6647   -0.8410    0.0000 H       1  UNL1        0.0265
     37 H          12.4617   -0.8410    0.0000 H       1  UNL1        0.0265
     38 H          13.3278    0.6089    0.0000 H       1  UNL1        0.0268
     39 H          12.5307    0.6089    0.0000 H       1  UNL1        0.0268
     40 H           4.6675    0.6089    0.0000 H       1  UNL1        0.0296
     41 H           3.8705    0.6089    0.0000 H       1  UNL1        0.0296
     42 H           6.2471   -1.3660    0.0000 H       1  UNL1        0.0232
     43 H           6.8671   -1.9860    0.0000 H       1  UNL1        0.0232
     44 H           7.4871   -1.3660    0.0000 H       1  UNL1        0.0232
     45 H           9.7112   -1.3660    0.0000 H       1  UNL1        0.0232
     46 H          10.3312   -1.9860    0.0000 H       1  UNL1        0.0232
     47 H          10.9512   -1.3660    0.0000 H       1  UNL1        0.0232
     48 H          14.3322   -0.6760    0.0000 H       1  UNL1        0.0295
     49 H          14.9713   -0.4030    0.0000 H       1  UNL1        0.0232
     50 H          15.1982    0.4440    0.0000 H       1  UNL1        0.0232
     51 H          14.3513    0.6709    0.0000 H       1  UNL1        0.0232
     52 H          13.1753   -1.3660    0.0000 H       1  UNL1        0.0232
     53 H          13.7953   -1.9860    0.0000 H       1  UNL1        0.0232
     54 H          14.4153   -1.3660    0.0000 H       1  UNL1        0.0232
     55 H           3.3660   -1.5420    0.0000 H       1  UNL1        0.0260
     56 H           4.2130   -1.7690    0.0000 H       1  UNL1        0.0260
     57 H           4.4399   -0.9221    0.0000 H       1  UNL1        0.0260
     58 H           2.2830    0.5000    0.0000 H       1  UNL1        0.0594
     59 H           2.0000   -0.5560    0.0000 H       1  UNL1        0.2106
     60 H           4.0230    1.3660    0.0000 H       1  UNL1        0.0533
     61 H           3.0930    1.9030    0.0000 H       1  UNL1        0.0533
@<TRIPOS>BOND
     1     1    16    1
     2     1    59    1
     3     2     4    1
     4     2     7    1
     5     2    13    1
     6     2    22    1
     7     3     5    1
     8     3     8    1
     9     3    14    1
    10     3    23    1
    11     4     6    1
    12     4    24    1
    13     4    25    1
    14     5     6    1
    15     5    26    1
    16     5    27    1
    17     6    28    1
    18     6    29    1
    19     7     9    1
    20     7    30    1
    21     7    31    1
    22     8    10    1
    23     8    32    1
    24     8    33    1
    25     9    12    1
    26     9    34    1
    27     9    35    1
    28    10    11    1
    29    10    36    1
    30    10    37    1
    31    11    15    1
    32    11    38    1
    33    11    39    1
    34    12    16    1
    35    12    40    1
    36    12    41    1
    37    13    42    1
    38    13    43    1
    39    13    44    1
    40    14    45    1
    41    14    46    1
    42    14    47    1
    43    15    17    1
    44    15    18    1
    45    15    48    1
    46    16    19    1
    47    16    20    1
    48    17    49    1
    49    17    50    1
    50    17    51    1
    51    18    52    1
    52    18    53    1
    53    18    54    1
    54    19    55    1
    55    19    56    1
    56    19    57    1
    57    20    21    2
    58    20    58    1
    59    21    60    1
    60    21    61    1
