@<TRIPOS>MOLECULE
IMPHY007727
 144 151 0 0 0
SMALL
GASTEIGER

@<TRIPOS>ATOM
      1 O           7.7331   -1.6941    0.0000 O.3     1  UNL1       -0.3449
      2 O           5.9793    7.5853    0.0000 O.3     1  UNL1       -0.4802
      3 O           5.0960    6.0954    0.0000 O.2     1  UNL1       -0.2504
      4 O           6.0010   -1.6941    0.0000 O.3     1  UNL1       -0.3405
      5 O           7.7331   -3.6941    0.0000 O.3     1  UNL1       -0.3377
      6 O           6.0010   -4.6941    0.0000 O.3     1  UNL1       -0.3400
      7 O           4.2690   -3.6941    0.0000 O.3     1  UNL1       -0.3865
      8 O           8.5991   -2.1941    0.0000 O.3     1  UNL1       -0.3405
      9 O           4.2690   -0.6941    0.0000 O.3     1  UNL1       -0.3924
     10 O           4.2690   -4.6941    0.0000 O.3     1  UNL1       -0.3405
     11 O           9.4651   -4.6941    0.0000 O.3     1  UNL1       -0.3841
     12 O           6.0010   -6.6941    0.0000 O.3     1  UNL1       -0.3841
     13 O          11.1972   -3.6941    0.0000 O.3     1  UNL1       -0.3864
     14 O          11.1972   -1.6941    0.0000 O.3     1  UNL1       -0.3865
     15 O           4.2690   -7.6941    0.0000 O.3     1  UNL1       -0.3864
     16 O           2.5369   -6.6941    0.0000 O.3     1  UNL1       -0.3865
     17 O          10.3312   -0.1941    0.0000 O.3     1  UNL1       -0.3924
     18 O           2.5369   -3.6941    0.0000 O.3     1  UNL1       -0.3924
     19 C           6.8320    3.0061    0.0000 C.3     1  UNL1       -0.0194
     20 C           7.6961    2.5027    0.0000 C.3     1  UNL1       -0.0257
     21 C           7.7082    1.4612    0.0000 C.3     1  UNL1       -0.0250
     22 C           6.8359    4.0061    0.0000 C.3     1  UNL1       -0.0051
     23 C           6.8081    0.9369    0.0000 C.3     1  UNL1       -0.0278
     24 C           5.9201    2.5027    0.0000 C.3     1  UNL1       -0.0463
     25 C           6.7956   -0.1480    0.0000 C.3     1  UNL1       -0.0052
     26 C           5.9080    1.4612    0.0000 C.3     1  UNL1       -0.0486
     27 C           7.7038    4.5027    0.0000 C.2     1  UNL1       -0.0629
     28 C           8.5641    2.9994    0.0000 C.3     1  UNL1       -0.0306
     29 C           8.6581    0.9369    0.0000 C.3     1  UNL1       -0.0447
     30 C           7.7239    5.5442    0.0000 C.3     1  UNL1       -0.0031
     31 C           5.9278    4.5164    0.0000 C.3     1  UNL1       -0.0424
     32 C           6.8279    6.0754    0.0000 C.3     1  UNL1        0.0741
     33 C           5.8479    3.1835    0.0000 C.3     1  UNL1       -0.0585
     34 C           7.7331   -0.6941    0.0000 C.3     1  UNL1        0.0672
     35 C           5.9238    5.5580    0.0000 C.3     1  UNL1       -0.0359
     36 C           8.5723    1.9645    0.0000 C.3     1  UNL1       -0.0590
     37 C           8.6706   -0.1480    0.0000 C.3     1  UNL1       -0.0255
     38 C           8.5679    3.9994    0.0000 C.2     1  UNL1       -0.0836
     39 C           5.8504    3.8363    0.0000 C.3     1  UNL1       -0.0553
     40 C           8.6778    6.0611    0.0000 C.3     1  UNL1       -0.0403
     41 C           6.8237    7.1604    0.0000 C.3     1  UNL1       -0.0362
     42 C           8.6987    7.1459    0.0000 C.3     1  UNL1       -0.0343
     43 C           5.7956   -0.1403    0.0000 C.3     1  UNL1       -0.0572
     44 C           6.2889   -1.0102    0.0000 C.3     1  UNL1       -0.0572
     45 C           7.7654    7.6992    0.0000 C.3     1  UNL1       -0.0468
     46 C           5.9677    6.5854    0.0000 C.2     1  UNL1        0.3115
     47 C           9.2120    8.0041    0.0000 C.3     1  UNL1       -0.0598
     48 C           9.6986    7.1305    0.0000 C.3     1  UNL1       -0.0598
     49 C           6.8671   -2.1941    0.0000 C.3     1  UNL1        0.1886
     50 C           6.8671   -3.1941    0.0000 C.3     1  UNL1        0.1410
     51 C           6.0010   -3.6941    0.0000 C.3     1  UNL1        0.1209
     52 C           5.1350   -2.1941    0.0000 C.3     1  UNL1        0.1130
     53 C           5.1350   -3.1941    0.0000 C.3     1  UNL1        0.1123
     54 C           4.2690   -1.6941    0.0000 C.3     1  UNL1        0.0730
     55 C           8.5991   -3.1941    0.0000 C.3     1  UNL1        0.1885
     56 C           5.1350   -5.1941    0.0000 C.3     1  UNL1        0.1884
     57 C           9.4651   -3.6941    0.0000 C.3     1  UNL1        0.1341
     58 C           5.1350   -6.1941    0.0000 C.3     1  UNL1        0.1341
     59 C          10.3312   -3.1941    0.0000 C.3     1  UNL1        0.1141
     60 C           9.4651   -1.6941    0.0000 C.3     1  UNL1        0.1130
     61 C          10.3312   -2.1941    0.0000 C.3     1  UNL1        0.1119
     62 C           4.2690   -6.6941    0.0000 C.3     1  UNL1        0.1141
     63 C           3.4030   -5.1941    0.0000 C.3     1  UNL1        0.1130
     64 C           3.4030   -6.1941    0.0000 C.3     1  UNL1        0.1119
     65 C           9.4651   -0.6941    0.0000 C.3     1  UNL1        0.0730
     66 C           2.5369   -4.6941    0.0000 C.3     1  UNL1        0.0730
     67 H           8.4339    2.0806    0.0000 H       1  UNL1        0.0315
     68 H           6.0687    0.5176    0.0000 H       1  UNL1        0.0312
     69 H           5.7178    3.0888    0.0000 H       1  UNL1        0.0271
     70 H           5.3080    2.4037    0.0000 H       1  UNL1        0.0271
     71 H           5.2984    1.5743    0.0000 H       1  UNL1        0.0268
     72 H           5.6922    0.8800    0.0000 H       1  UNL1        0.0268
     73 H           8.7739    2.4160    0.0000 H       1  UNL1        0.0310
     74 H           9.1751    3.1047    0.0000 H       1  UNL1        0.0310
     75 H           9.2701    0.8379    0.0000 H       1  UNL1        0.0271
     76 H           8.8604    1.5230    0.0000 H       1  UNL1        0.0271
     77 H           8.4500    5.1023    0.0000 H       1  UNL1        0.0357
     78 H           5.3166    4.6202    0.0000 H       1  UNL1        0.0274
     79 H           5.7210    3.9319    0.0000 H       1  UNL1        0.0274
     80 H           5.9579    3.7937    0.0000 H       1  UNL1        0.0235
     81 H           5.2377    3.2936    0.0000 H       1  UNL1        0.0235
     82 H           5.7379    2.5734    0.0000 H       1  UNL1        0.0235
     83 H           8.2706   -1.0031    0.0000 H       1  UNL1        0.0602
     84 H           5.7125    6.1409    0.0000 H       1  UNL1        0.0276
     85 H           5.3134    5.4496    0.0000 H       1  UNL1        0.0276
     86 H           8.8843    1.4288    0.0000 H       1  UNL1        0.0235
     87 H           9.1080    2.2766    0.0000 H       1  UNL1        0.0235
     88 H           8.2602    2.5003    0.0000 H       1  UNL1        0.0235
     89 H           8.8864   -0.7293    0.0000 H       1  UNL1        0.0290
     90 H           9.2802   -0.0349    0.0000 H       1  UNL1        0.0290
     91 H           9.1060    4.3073    0.0000 H       1  UNL1        0.0572
     92 H           5.7451    4.4473    0.0000 H       1  UNL1        0.0238
     93 H           5.2394    3.7310    0.0000 H       1  UNL1        0.0238
     94 H           5.9557    3.2253    0.0000 H       1  UNL1        0.0238
     95 H           8.8756    5.4735    0.0000 H       1  UNL1        0.0276
     96 H           9.2906    6.1554    0.0000 H       1  UNL1        0.0276
     97 H           6.6124    7.7433    0.0000 H       1  UNL1        0.0276
     98 H           6.2133    7.0519    0.0000 H       1  UNL1        0.0276
     99 H           5.8004    0.4797    0.0000 H       1  UNL1        0.0236
    100 H           5.1756   -0.1355    0.0000 H       1  UNL1        0.0236
    101 H           5.7908   -0.7603    0.0000 H       1  UNL1        0.0236
    102 H           5.7544   -0.6960    0.0000 H       1  UNL1        0.0236
    103 H           5.9748   -1.5447    0.0000 H       1  UNL1        0.0236
    104 H           6.8234   -1.3243    0.0000 H       1  UNL1        0.0236
    105 H           8.1682    8.1706    0.0000 H       1  UNL1        0.0271
    106 H           7.3700    8.1767    0.0000 H       1  UNL1        0.0271
    107 H           9.7441    7.6859    0.0000 H       1  UNL1        0.0235
    108 H           9.5303    8.5362    0.0000 H       1  UNL1        0.0235
    109 H           8.6799    8.3224    0.0000 H       1  UNL1        0.0235
    110 H           9.6891    6.5106    0.0000 H       1  UNL1        0.0235
    111 H          10.3185    7.1209    0.0000 H       1  UNL1        0.0235
    112 H           9.7082    7.7504    0.0000 H       1  UNL1        0.0235
    113 H           7.4040   -2.5041    0.0000 H       1  UNL1        0.0938
    114 H           5.4460    7.9015    0.0000 H       1  UNL1        0.2951
    115 H           6.8671   -3.8141    0.0000 H       1  UNL1        0.0675
    116 H           5.4641   -4.0041    0.0000 H       1  UNL1        0.0651
    117 H           5.1350   -1.5741    0.0000 H       1  UNL1        0.0647
    118 H           4.5981   -2.8841    0.0000 H       1  UNL1        0.0647
    119 H           3.6584   -1.5865    0.0000 H       1  UNL1        0.0584
    120 H           4.0569   -2.2767    0.0000 H       1  UNL1        0.0584
    121 H           8.5991   -3.8141    0.0000 H       1  UNL1        0.0938
    122 H           3.7320   -3.3841    0.0000 H       1  UNL1        0.2100
    123 H           5.1350   -4.5741    0.0000 H       1  UNL1        0.0938
    124 H          10.0021   -4.0041    0.0000 H       1  UNL1        0.0671
    125 H           3.7320   -0.3841    0.0000 H       1  UNL1        0.2095
    126 H           5.1350   -6.8141    0.0000 H       1  UNL1        0.0671
    127 H          10.8681   -2.8841    0.0000 H       1  UNL1        0.0648
    128 H           8.9282   -1.3841    0.0000 H       1  UNL1        0.0647
    129 H          10.3312   -1.5741    0.0000 H       1  UNL1        0.0647
    130 H           3.7320   -7.0041    0.0000 H       1  UNL1        0.0648
    131 H           3.4030   -4.5741    0.0000 H       1  UNL1        0.0647
    132 H           2.8660   -5.8841    0.0000 H       1  UNL1        0.0647
    133 H           8.9282   -5.0041    0.0000 H       1  UNL1        0.2101
    134 H           9.2531   -0.1115    0.0000 H       1  UNL1        0.0584
    135 H           8.8546   -0.8018    0.0000 H       1  UNL1        0.0584
    136 H           6.0010   -7.3141    0.0000 H       1  UNL1        0.2101
    137 H          11.7341   -3.3841    0.0000 H       1  UNL1        0.2100
    138 H           1.9264   -4.5865    0.0000 H       1  UNL1        0.0584
    139 H           2.3249   -5.2767    0.0000 H       1  UNL1        0.0584
    140 H          11.1972   -1.0741    0.0000 H       1  UNL1        0.2100
    141 H           3.7320   -8.0041    0.0000 H       1  UNL1        0.2100
    142 H           2.0000   -6.3841    0.0000 H       1  UNL1        0.2100
    143 H          10.3312    0.4259    0.0000 H       1  UNL1        0.2095
    144 H           2.0000   -3.3841    0.0000 H       1  UNL1        0.2095
@<TRIPOS>BOND
     1    34     1    1
     2    49     1    1
     3     2    46    1
     4     2   114    1
     5     3    46    2
     6     4    49    1
     7     4    52    1
     8    50     5    1
     9    55     5    1
    10    51     6    1
    11    56     6    1
    12    53     7    1
    13     7   122    1
    14     8    55    1
    15     8    60    1
    16     9    54    1
    17     9   125    1
    18    10    56    1
    19    10    63    1
    20    57    11    1
    21    11   133    1
    22    58    12    1
    23    12   136    1
    24    59    13    1
    25    13   137    1
    26    61    14    1
    27    14   140    1
    28    62    15    1
    29    15   141    1
    30    64    16    1
    31    16   142    1
    32    17    65    1
    33    17   143    1
    34    18    66    1
    35    18   144    1
    36    19    20    1
    37    19    22    1
    38    19    24    1
    39    19    33    1
    40    20    21    1
    41    20    28    1
    42    20    67    1
    43    21    23    1
    44    21    29    1
    45    21    36    1
    46    22    27    1
    47    22    31    1
    48    22    39    1
    49    23    25    1
    50    23    26    1
    51    23    68    1
    52    24    26    1
    53    24    69    1
    54    24    70    1
    55    25    34    1
    56    25    43    1
    57    25    44    1
    58    26    71    1
    59    26    72    1
    60    27    30    1
    61    27    38    2
    62    28    38    1
    63    28    73    1
    64    28    74    1
    65    29    37    1
    66    29    75    1
    67    29    76    1
    68    30    32    1
    69    30    40    1
    70    30    77    1
    71    31    35    1
    72    31    78    1
    73    31    79    1
    74    32    35    1
    75    32    41    1
    76    32    46    1
    77    33    80    1
    78    33    81    1
    79    33    82    1
    80    34    37    1
    81    34    83    1
    82    35    84    1
    83    35    85    1
    84    36    86    1
    85    36    87    1
    86    36    88    1
    87    37    89    1
    88    37    90    1
    89    38    91    1
    90    39    92    1
    91    39    93    1
    92    39    94    1
    93    40    42    1
    94    40    95    1
    95    40    96    1
    96    41    45    1
    97    41    97    1
    98    41    98    1
    99    42    45    1
   100    42    47    1
   101    42    48    1
   102    43    99    1
   103    43   100    1
   104    43   101    1
   105    44   102    1
   106    44   103    1
   107    44   104    1
   108    45   105    1
   109    45   106    1
   110    47   107    1
   111    47   108    1
   112    47   109    1
   113    48   110    1
   114    48   111    1
   115    48   112    1
   116    49    50    1
   117    49   113    1
   118    50    51    1
   119    50   115    1
   120    51    53    1
   121    51   116    1
   122    52    53    1
   123    52    54    1
   124    52   117    1
   125    53   118    1
   126    54   119    1
   127    54   120    1
   128    55    57    1
   129    55   121    1
   130    56    58    1
   131    56   123    1
   132    57    59    1
   133    57   124    1
   134    58    62    1
   135    58   126    1
   136    59    61    1
   137    59   127    1
   138    60    61    1
   139    60    65    1
   140    60   128    1
   141    61   129    1
   142    62    64    1
   143    62   130    1
   144    63    64    1
   145    63    66    1
   146    63   131    1
   147    64   132    1
   148    65   134    1
   149    65   135    1
   150    66   138    1
   151    66   139    1
