@<TRIPOS>MOLECULE
IMPHY002336
 17 19 0 0 0
SMALL
GASTEIGER

@<TRIPOS>ATOM
      1 C           1.4992    2.5972    0.0000 C.3     1  UNL1        0.0621
      2 C           0.9990    3.4639    0.0000 C.3     1  UNL1        0.1226
      3 C           2.4995    2.5972    0.0000 C.3     1  UNL1        0.0262
      4 C           0.9990    1.7319    0.0000 C.3     1  UNL1        0.1586
      5 O           0.1337    3.9640    0.0000 O.3     1  UNL1       -0.3535
      6 C           0.1337    2.9637    0.0000 C.3     1  UNL1        0.1690
      7 C           1.4992    4.3292    0.0000 C.3     1  UNL1        0.0298
      8 C           2.9997    3.4639    0.0000 C.3     1  UNL1        0.0042
      9 C           2.9997    1.7319    0.0000 C.2     1  UNL1       -0.0347
     10 C           1.4992    0.8653    0.0000 C.3     1  UNL1        0.0547
     11 O           0.0000    1.7319    0.0000 O.3     1  UNL1       -0.2227
     12 C           2.4995    4.3292    0.0000 C.3     1  UNL1        0.0028
     13 C           4.0000    3.4639    0.0000 C.3     1  UNL1        0.0003
     14 C           2.4995    0.8653    0.0000 C.2     1  UNL1       -0.0456
     15 C           4.5002    4.3292    0.0000 C.3     1  UNL1        0.0000
     16 C           4.5002    2.5972    0.0000 C.3     1  UNL1        0.0000
     17 C           2.9997    0.0000    0.0000 C.3     1  UNL1        0.0261
@<TRIPOS>BOND
     1     1     2    1
     2     1     3    1
     3     1     4    1
     4     2     5    1
     5     2     6    1
     6     2     7    1
     7     3     8    1
     8     3     9    1
     9     4    10    1
    10     4    11    1
    11     5     6    1
    12     7    12    1
    13     8    12    1
    14     8    13    1
    15     9    14    2
    16    10    14    1
    17    13    15    1
    18    13    16    1
    19    14    17    1
