@<TRIPOS>MOLECULE
IMPHY012204
 22 22 0 0 0
SMALL
GASTEIGER

@<TRIPOS>ATOM
      1 O           2.8660    2.0000    0.0000 O.3     1  UNL1       -0.4646
      2 O           2.0000    0.5000    0.0000 O.2     1  UNL1       -0.2453
      3 O           5.4641   -2.5000    0.0000 O.2     1  UNL1       -0.1260
      4 N           4.5981   -1.0000    0.0000 N.pl3   1  UNL1       -0.2154
      5 N           4.5981   -2.0000    0.0000 N.2     1  UNL1        0.0447
      6 C           5.4641   -0.5000    0.0000 C.3     1  UNL1        0.0364
      7 C           5.4641    0.5000    0.0000 C.3     1  UNL1       -0.0165
      8 C           3.7320   -0.5000    0.0000 C.3     1  UNL1        0.0641
      9 C           3.7320    0.5000    0.0000 C.2     1  UNL1        0.0515
     10 C           4.5981    1.0000    0.0000 C.2     1  UNL1       -0.0709
     11 C           2.8660    1.0000    0.0000 C.2     1  UNL1        0.3362
     12 C           2.0000    2.5000    0.0000 C.3     1  UNL1        0.0820
     13 H           5.6762   -1.0826    0.0000 H       1  UNL1        0.0484
     14 H           6.0747   -0.3923    0.0000 H       1  UNL1        0.0484
     15 H           6.0747    0.3923    0.0000 H       1  UNL1        0.0323
     16 H           5.6762    1.0826    0.0000 H       1  UNL1        0.0323
     17 H           3.1215   -0.3923    0.0000 H       1  UNL1        0.0532
     18 H           3.5200   -1.0826    0.0000 H       1  UNL1        0.0532
     19 H           4.5981    1.6200    0.0000 H       1  UNL1        0.0578
     20 H           2.3100    3.0369    0.0000 H       1  UNL1        0.0661
     21 H           1.4631    2.8100    0.0000 H       1  UNL1        0.0661
     22 H           1.6900    1.9631    0.0000 H       1  UNL1        0.0661
@<TRIPOS>BOND
     1     1    11    1
     2     1    12    1
     3     2    11    2
     4     3     5    2
     5     4     5    1
     6     4     6    1
     7     4     8    1
     8     6     7    1
     9     6    13    1
    10     6    14    1
    11     7    10    1
    12     7    15    1
    13     7    16    1
    14     8     9    1
    15     8    17    1
    16     8    18    1
    17     9    10    2
    18     9    11    1
    19    10    19    1
    20    12    20    1
    21    12    21    1
    22    12    22    1
