@<TRIPOS>MOLECULE
IMPHY013140
 39 41 0 0 0
SMALL
GASTEIGER

@<TRIPOS>ATOM
      1 O           3.5836   -0.2583    0.0000 O.3     1  UNL1       -0.4530
      2 O           8.0321   -0.5662    0.0000 O.3     1  UNL1       -0.3908
      3 O           6.2740    2.5062    0.0000 O.3     1  UNL1       -0.3874
      4 O           2.0000   -1.0630    0.0000 O.2     1  UNL1       -0.2453
      5 C           6.2619   -0.5630    0.0000 C.3     1  UNL1        0.0187
      6 C           5.3958   -0.0630    0.0000 C.2     1  UNL1       -0.0193
      7 C           6.2619   -1.5630    0.0000 C.3     1  UNL1       -0.0407
      8 C           4.5298   -0.5630    0.0000 C.3     1  UNL1        0.1323
      9 C           4.5298   -1.5630    0.0000 C.3     1  UNL1        0.0314
     10 C           7.1719   -0.0562    0.0000 C.3     1  UNL1        0.0670
     11 C           5.3958   -2.0630    0.0000 C.3     1  UNL1       -0.0414
     12 C           7.1799    0.9854    0.0000 C.3     1  UNL1        0.0039
     13 C           5.3798    0.9785    0.0000 C.2     1  UNL1       -0.0411
     14 C           6.2778    1.5062    0.0000 C.3     1  UNL1        0.0787
     15 C           7.1279   -1.0630    0.0000 C.3     1  UNL1       -0.0533
     16 C           3.5836   -1.8678    0.0000 C.2     1  UNL1        0.0364
     17 C           3.0000   -1.0630    0.0000 C.2     1  UNL1        0.3356
     18 C           4.5080    1.4684    0.0000 C.3     1  UNL1       -0.0410
     19 C           3.2729   -2.8183    0.0000 C.2     1  UNL1       -0.0883
     20 H           6.4739   -2.1456    0.0000 H       1  UNL1        0.0275
     21 H           6.8725   -1.4554    0.0000 H       1  UNL1        0.0275
     22 H           4.4399    0.2822    0.0000 H       1  UNL1        0.0788
     23 H           4.4399   -2.4083    0.0000 H       1  UNL1        0.0390
     24 H           7.7118    0.2486    0.0000 H       1  UNL1        0.0603
     25 H           4.9973   -2.5380    0.0000 H       1  UNL1        0.0273
     26 H           5.7944   -2.5380    0.0000 H       1  UNL1        0.0273
     27 H           7.7899    0.8746    0.0000 H       1  UNL1        0.0319
     28 H           7.3935    1.5675    0.0000 H       1  UNL1        0.0319
     29 H           6.8142    1.8173    0.0000 H       1  UNL1        0.0641
     30 H           6.8179   -1.6000    0.0000 H       1  UNL1        0.0239
     31 H           7.6648   -1.3730    0.0000 H       1  UNL1        0.0239
     32 H           7.4379   -0.5261    0.0000 H       1  UNL1        0.0239
     33 H           4.8118    2.0089    0.0000 H       1  UNL1        0.0275
     34 H           3.9676    1.7722    0.0000 H       1  UNL1        0.0275
     35 H           4.2043    0.9279    0.0000 H       1  UNL1        0.0275
     36 H           8.5726   -0.2624    0.0000 H       1  UNL1        0.2098
     37 H           6.8097    2.8183    0.0000 H       1  UNL1        0.2102
     38 H           2.6663   -2.9461    0.0000 H       1  UNL1        0.0540
     39 H           3.6870   -3.2798    0.0000 H       1  UNL1        0.0540
@<TRIPOS>BOND
     1     1     8    1
     2     1    17    1
     3    10     2    1
     4     2    36    1
     5    14     3    1
     6     3    37    1
     7     4    17    2
     8     5     6    1
     9     5     7    1
    10     5    10    1
    11     5    15    1
    12     6     8    1
    13     6    13    2
    14     7    11    1
    15     7    20    1
    16     7    21    1
    17     8     9    1
    18     8    22    1
    19     9    11    1
    20     9    16    1
    21     9    23    1
    22    10    12    1
    23    10    24    1
    24    11    25    1
    25    11    26    1
    26    12    14    1
    27    12    27    1
    28    12    28    1
    29    13    14    1
    30    13    18    1
    31    14    29    1
    32    15    30    1
    33    15    31    1
    34    15    32    1
    35    16    17    1
    36    16    19    2
    37    18    33    1
    38    18    34    1
    39    18    35    1
    40    19    38    1
    41    19    39    1
