@<TRIPOS>MOLECULE
IMPHY001337
 20 20 0 0 0
SMALL
GASTEIGER

@<TRIPOS>ATOM
      1 O           4.5576    1.0116    0.0000 O.3     1  UNL1       -0.3407
      2 O           3.4699   -1.3362    0.0000 O.3     1  UNL1       -0.3864
      3 O           5.6454   -1.3362    0.0000 O.3     1  UNL1       -0.3841
      4 O           6.3177    0.7329    0.0000 O.3     1  UNL1       -0.3649
      5 O           2.5896    1.7110    0.0000 O.3     1  UNL1       -0.3924
      6 C           4.0576   -0.5272    0.0000 C.3     1  UNL1        0.1141
      7 C           3.7486    0.4239    0.0000 C.3     1  UNL1        0.1131
      8 C           5.0576   -0.5272    0.0000 C.3     1  UNL1        0.1339
      9 C           5.3667    0.4239    0.0000 C.3     1  UNL1        0.1854
     10 C           2.7976    0.7329    0.0000 C.3     1  UNL1        0.0730
     11 H           3.4453   -0.4302    0.0000 H       1  UNL1        0.0648
     12 H           3.6516    1.0362    0.0000 H       1  UNL1        0.0647
     13 H           4.7762   -1.0796    0.0000 H       1  UNL1        0.0671
     14 H           5.8051   -0.0145    0.0000 H       1  UNL1        0.0935
     15 H           2.1779    0.7112    0.0000 H       1  UNL1        0.0584
     16 H           2.7113    0.1189    0.0000 H       1  UNL1        0.0584
     17 H           3.7220   -1.9026    0.0000 H       1  UNL1        0.2100
     18 H           6.2620   -1.2714    0.0000 H       1  UNL1        0.2101
     19 H           6.4466    1.3393    0.0000 H       1  UNL1        0.2126
     20 H           2.0000    1.9026    0.0000 H       1  UNL1        0.2095
@<TRIPOS>BOND
     1     1     7    1
     2     1     9    1
     3     6     2    1
     4     2    17    1
     5     8     3    1
     6     3    18    1
     7     9     4    1
     8     4    19    1
     9     5    10    1
    10     5    20    1
    11     6     7    1
    12     6     8    1
    13     6    11    1
    14     7    10    1
    15     7    12    1
    16     8     9    1
    17     8    13    1
    18     9    14    1
    19    10    15    1
    20    10    16    1
