@<TRIPOS>MOLECULE
IMPHY003348
 132 137 0 0 0
SMALL
GASTEIGER

@<TRIPOS>ATOM
      1 O           5.1643    3.3253    0.0000 O.3     1  UNL1       -0.3915
      2 O           6.8671   -2.8649    0.0000 O.3     1  UNL1       -0.3449
      3 O           7.1728    5.7170    0.0000 O.3     1  UNL1       -0.3886
      4 O           5.1350   -2.8649    0.0000 O.3     1  UNL1       -0.3405
      5 O           6.8671   -4.8649    0.0000 O.3     1  UNL1       -0.3378
      6 O           5.1350   -5.8649    0.0000 O.3     1  UNL1       -0.3864
      7 O           3.4030   -4.8649    0.0000 O.3     1  UNL1       -0.3865
      8 O           6.0010   -6.3649    0.0000 O.3     1  UNL1       -0.3394
      9 O           2.5369   -3.3649    0.0000 O.3     1  UNL1       -0.3924
     10 O           8.5991   -5.8649    0.0000 O.3     1  UNL1       -0.3841
     11 O           8.5991   -7.8649    0.0000 O.3     1  UNL1       -0.3864
     12 O           6.8671   -8.8649    0.0000 O.3     1  UNL1       -0.3864
     13 O           4.2690   -7.3649    0.0000 O.3     1  UNL1       -0.4621
     14 O           3.4030   -8.8649    0.0000 O.2     1  UNL1       -0.2512
     15 C           6.8920    0.2904    0.0000 C.3     1  UNL1       -0.0228
     16 C           6.9040    1.3320    0.0000 C.3     1  UNL1       -0.0294
     17 C           7.7681    1.8353    0.0000 C.3     1  UNL1       -0.0318
     18 C           7.7643    2.8353    0.0000 C.3     1  UNL1       -0.0234
     19 C           7.7920   -0.2339    0.0000 C.3     1  UNL1       -0.0189
     20 C           6.8963    3.3320    0.0000 C.3     1  UNL1       -0.0039
     21 C           7.8046   -1.3188    0.0000 C.3     1  UNL1       -0.0027
     22 C           8.6801    1.3320    0.0000 C.3     1  UNL1       -0.0489
     23 C           8.6921    0.2904    0.0000 C.3     1  UNL1       -0.0463
     24 C           6.0361    1.8286    0.0000 C.3     1  UNL1       -0.0229
     25 C           7.1018    4.3046    0.0000 C.3     1  UNL1       -0.0067
     26 C           6.0322    2.8286    0.0000 C.3     1  UNL1        0.0592
     27 C           8.4987    3.5052    0.0000 C.3     1  UNL1       -0.0467
     28 C           5.9421   -0.2339    0.0000 C.3     1  UNL1       -0.0445
     29 C           8.0901    4.4114    0.0000 C.3     1  UNL1       -0.0467
     30 C           6.8671   -1.8649    0.0000 C.3     1  UNL1        0.0674
     31 C           6.0279    0.7938    0.0000 C.3     1  UNL1       -0.0588
     32 C           5.9295   -1.3188    0.0000 C.3     1  UNL1       -0.0255
     33 C           8.6322    2.3387    0.0000 C.3     1  UNL1       -0.0590
     34 C           8.7304   -0.5795    0.0000 C.3     1  UNL1       -0.0585
     35 C           6.4311    5.0463    0.0000 C.3     1  UNL1        0.0668
     36 C           8.3113   -2.1809    0.0000 C.3     1  UNL1       -0.0569
     37 C           8.7907   -1.4848    0.0000 C.3     1  UNL1       -0.0569
     38 C           5.7604    5.7880    0.0000 C.3     1  UNL1       -0.0206
     39 C           5.6894    4.3756    0.0000 C.3     1  UNL1       -0.0358
     40 C           6.0010   -3.3649    0.0000 C.3     1  UNL1        0.1886
     41 C           6.0674    6.7397    0.0000 C.3     1  UNL1       -0.0319
     42 C           6.0010   -4.3649    0.0000 C.3     1  UNL1        0.1406
     43 C           5.1350   -4.8649    0.0000 C.3     1  UNL1        0.1144
     44 C           5.3966    7.4815    0.0000 C.2     1  UNL1       -0.0852
     45 C           4.2690   -3.3649    0.0000 C.3     1  UNL1        0.1130
     46 C           4.2690   -4.3649    0.0000 C.3     1  UNL1        0.1119
     47 C           5.7036    8.4332    0.0000 C.2     1  UNL1       -0.0796
     48 C           3.4030   -2.8649    0.0000 C.3     1  UNL1        0.0730
     49 C           6.8671   -5.8649    0.0000 C.3     1  UNL1        0.1886
     50 C           5.0329    9.1749    0.0000 C.3     1  UNL1       -0.0440
     51 C           6.6814    8.6432    0.0000 C.3     1  UNL1       -0.0440
     52 C           7.7331   -6.3649    0.0000 C.3     1  UNL1        0.1341
     53 C           7.7331   -7.3649    0.0000 C.3     1  UNL1        0.1141
     54 C           6.0010   -7.3649    0.0000 C.3     1  UNL1        0.1240
     55 C           6.8671   -7.8649    0.0000 C.3     1  UNL1        0.1129
     56 C           5.1350   -7.8649    0.0000 C.3     1  UNL1        0.1211
     57 C           3.4030   -7.8649    0.0000 C.2     1  UNL1        0.3040
     58 C           2.5369   -7.3649    0.0000 C.3     1  UNL1        0.0332
     59 H           7.6385    0.9042    0.0000 H       1  UNL1        0.0310
     60 H           8.4993    2.2688    0.0000 H       1  UNL1        0.0309
     61 H           6.2074    3.8298    0.0000 H       1  UNL1        0.0335
     62 H           9.2921    1.2330    0.0000 H       1  UNL1        0.0268
     63 H           8.8824    1.9181    0.0000 H       1  UNL1        0.0268
     64 H           8.9079   -0.2908    0.0000 H       1  UNL1        0.0271
     65 H           9.3017    0.4036    0.0000 H       1  UNL1        0.0271
     66 H           5.4251    1.9340    0.0000 H       1  UNL1        0.0293
     67 H           5.8263    1.2452    0.0000 H       1  UNL1        0.0293
     68 H           7.4044    5.0989    0.0000 H       1  UNL1        0.0332
     69 H           6.0298    3.4486    0.0000 H       1  UNL1        0.0596
     70 H           8.8661    3.0058    0.0000 H       1  UNL1        0.0271
     71 H           9.0340    3.8181    0.0000 H       1  UNL1        0.0271
     72 H           5.7398    0.3522    0.0000 H       1  UNL1        0.0272
     73 H           5.3300   -0.3329    0.0000 H       1  UNL1        0.0272
     74 H           8.6790    4.6055    0.0000 H       1  UNL1        0.0269
     75 H           7.9590    5.0174    0.0000 H       1  UNL1        0.0269
     76 H           7.6040   -2.2885    0.0000 H       1  UNL1        0.0602
     77 H           6.3400    1.3295    0.0000 H       1  UNL1        0.0235
     78 H           5.4922    1.1058    0.0000 H       1  UNL1        0.0235
     79 H           5.7158    0.2580    0.0000 H       1  UNL1        0.0235
     80 H           5.3199   -1.2056    0.0000 H       1  UNL1        0.0290
     81 H           5.7137   -1.9000    0.0000 H       1  UNL1        0.0290
     82 H           8.3243    1.8005    0.0000 H       1  UNL1        0.0235
     83 H           9.1703    2.0307    0.0000 H       1  UNL1        0.0235
     84 H           8.9401    2.8768    0.0000 H       1  UNL1        0.0235
     85 H           8.5161   -1.1613    0.0000 H       1  UNL1        0.0235
     86 H           9.3122   -0.7938    0.0000 H       1  UNL1        0.0235
     87 H           8.9447    0.0023    0.0000 H       1  UNL1        0.0235
     88 H           7.7767   -2.4951    0.0000 H       1  UNL1        0.0236
     89 H           8.6254   -2.7155    0.0000 H       1  UNL1        0.0236
     90 H           8.8458   -1.8668    0.0000 H       1  UNL1        0.0236
     91 H           8.6878   -2.0962    0.0000 H       1  UNL1        0.0236
     92 H           9.4021   -1.5878    0.0000 H       1  UNL1        0.0236
     93 H           8.8937   -0.8734    0.0000 H       1  UNL1        0.0236
     94 H           4.6286    3.0132    0.0000 H       1  UNL1        0.2098
     95 H           5.2123    6.0779    0.0000 H       1  UNL1        0.0296
     96 H           5.3797    5.2987    0.0000 H       1  UNL1        0.0296
     97 H           5.2735    4.8355    0.0000 H       1  UNL1        0.0257
     98 H           5.2295    3.9598    0.0000 H       1  UNL1        0.0257
     99 H           6.1052    3.9157    0.0000 H       1  UNL1        0.0257
    100 H           7.0426    6.3232    0.0000 H       1  UNL1        0.2102
    101 H           6.5380   -3.6749    0.0000 H       1  UNL1        0.0938
    102 H           6.6154    6.4498    0.0000 H       1  UNL1        0.0308
    103 H           6.4480    7.2291    0.0000 H       1  UNL1        0.0308
    104 H           6.0010   -4.9849    0.0000 H       1  UNL1        0.0675
    105 H           4.5981   -5.1749    0.0000 H       1  UNL1        0.0648
    106 H           4.7905    7.3513    0.0000 H       1  UNL1        0.0571
    107 H           4.2690   -2.7449    0.0000 H       1  UNL1        0.0647
    108 H           3.7320   -4.0549    0.0000 H       1  UNL1        0.0647
    109 H           3.8015   -2.3899    0.0000 H       1  UNL1        0.0584
    110 H           3.0044   -2.3899    0.0000 H       1  UNL1        0.0584
    111 H           7.4040   -5.5549    0.0000 H       1  UNL1        0.0938
    112 H           4.5981   -6.1749    0.0000 H       1  UNL1        0.2100
    113 H           3.4030   -5.4849    0.0000 H       1  UNL1        0.2100
    114 H           5.4928    9.5907    0.0000 H       1  UNL1        0.0274
    115 H           4.6171    9.6348    0.0000 H       1  UNL1        0.0274
    116 H           4.5731    8.7591    0.0000 H       1  UNL1        0.0274
    117 H           6.8116    8.0370    0.0000 H       1  UNL1        0.0274
    118 H           7.2875    8.7734    0.0000 H       1  UNL1        0.0274
    119 H           6.5512    9.2493    0.0000 H       1  UNL1        0.0274
    120 H           8.2700   -6.6749    0.0000 H       1  UNL1        0.0671
    121 H           2.0000   -3.0549    0.0000 H       1  UNL1        0.2095
    122 H           7.7331   -7.9849    0.0000 H       1  UNL1        0.0648
    123 H           5.4641   -7.0549    0.0000 H       1  UNL1        0.0658
    124 H           6.3301   -8.1749    0.0000 H       1  UNL1        0.0647
    125 H           9.1360   -6.1749    0.0000 H       1  UNL1        0.2101
    126 H           4.7365   -8.3398    0.0000 H       1  UNL1        0.0724
    127 H           5.5335   -8.3398    0.0000 H       1  UNL1        0.0724
    128 H           8.5991   -8.4849    0.0000 H       1  UNL1        0.2100
    129 H           6.3301   -9.1749    0.0000 H       1  UNL1        0.2100
    130 H           2.8469   -6.8280    0.0000 H       1  UNL1        0.0342
    131 H           2.0000   -7.0549    0.0000 H       1  UNL1        0.0342
    132 H           2.2269   -7.9018    0.0000 H       1  UNL1        0.0342
@<TRIPOS>BOND
     1    26     1    1
     2     1    94    1
     3     2    30    1
     4    40     2    1
     5    35     3    1
     6     3   100    1
     7     4    40    1
     8     4    45    1
     9    42     5    1
    10    49     5    1
    11    43     6    1
    12     6   112    1
    13    46     7    1
    14     7   113    1
    15     8    49    1
    16     8    54    1
    17     9    48    1
    18     9   121    1
    19    52    10    1
    20    10   125    1
    21    53    11    1
    22    11   128    1
    23    55    12    1
    24    12   129    1
    25    13    56    1
    26    13    57    1
    27    14    57    2
    28    15    16    1
    29    15    19    1
    30    15    28    1
    31    15    31    1
    32    16    17    1
    33    16    24    1
    34    16    59    1
    35    17    18    1
    36    17    22    1
    37    17    60    1
    38    18    20    1
    39    18    27    1
    40    18    33    1
    41    19    21    1
    42    19    23    1
    43    19    34    1
    44    20    25    1
    45    20    26    1
    46    20    61    1
    47    21    30    1
    48    21    36    1
    49    21    37    1
    50    22    23    1
    51    22    62    1
    52    22    63    1
    53    23    64    1
    54    23    65    1
    55    24    26    1
    56    24    66    1
    57    24    67    1
    58    25    29    1
    59    25    35    1
    60    25    68    1
    61    26    69    1
    62    27    29    1
    63    27    70    1
    64    27    71    1
    65    28    32    1
    66    28    72    1
    67    28    73    1
    68    29    74    1
    69    29    75    1
    70    30    32    1
    71    30    76    1
    72    31    77    1
    73    31    78    1
    74    31    79    1
    75    32    80    1
    76    32    81    1
    77    33    82    1
    78    33    83    1
    79    33    84    1
    80    34    85    1
    81    34    86    1
    82    34    87    1
    83    35    38    1
    84    35    39    1
    85    36    88    1
    86    36    89    1
    87    36    90    1
    88    37    91    1
    89    37    92    1
    90    37    93    1
    91    38    41    1
    92    38    95    1
    93    38    96    1
    94    39    97    1
    95    39    98    1
    96    39    99    1
    97    40    42    1
    98    40   101    1
    99    41    44    1
   100    41   102    1
   101    41   103    1
   102    42    43    1
   103    42   104    1
   104    43    46    1
   105    43   105    1
   106    44    47    2
   107    44   106    1
   108    45    46    1
   109    45    48    1
   110    45   107    1
   111    46   108    1
   112    47    50    1
   113    47    51    1
   114    48   109    1
   115    48   110    1
   116    49    52    1
   117    49   111    1
   118    50   114    1
   119    50   115    1
   120    50   116    1
   121    51   117    1
   122    51   118    1
   123    51   119    1
   124    52    53    1
   125    52   120    1
   126    53    55    1
   127    53   122    1
   128    54    55    1
   129    54    56    1
   130    54   123    1
   131    55   124    1
   132    56   126    1
   133    56   127    1
   134    57    58    1
   135    58   130    1
   136    58   131    1
   137    58   132    1
