@<TRIPOS>MOLECULE
IMPHY017871
 37 37 0 0 0
SMALL
GASTEIGER

@<TRIPOS>ATOM
      1 O           3.0000   -3.3450    0.0000 O.3     1  UNL1       -0.5068
      2 C           3.0000    0.6550    0.0000 C.3     1  UNL1       -0.0098
      3 C           3.0000    1.6550    0.0000 C.3     1  UNL1       -0.0436
      4 C           3.8660    2.1550    0.0000 C.3     1  UNL1       -0.0499
      5 C           3.8660    3.1550    0.0000 C.3     1  UNL1       -0.0467
      6 C           3.0000   -0.3450    0.0000 C.ar    1  UNL1       -0.0415
      7 C           4.0000    0.6550    0.0000 C.3     1  UNL1       -0.0558
      8 C           2.0000    0.6550    0.0000 C.3     1  UNL1       -0.0558
      9 C           4.7320    3.6550    0.0000 C.3     1  UNL1       -0.0627
     10 C           3.0000    3.6550    0.0000 C.3     1  UNL1       -0.0627
     11 C           2.1340   -0.8450    0.0000 C.ar    1  UNL1       -0.0546
     12 C           3.8660   -0.8450    0.0000 C.ar    1  UNL1       -0.0546
     13 C           2.1340   -1.8450    0.0000 C.ar    1  UNL1       -0.0199
     14 C           3.8660   -1.8450    0.0000 C.ar    1  UNL1       -0.0199
     15 C           3.0000   -2.3450    0.0000 C.ar    1  UNL1        0.1169
     16 H           2.7880    2.2376    0.0000 H       1  UNL1        0.0274
     17 H           2.3894    1.5473    0.0000 H       1  UNL1        0.0274
     18 H           4.0781    1.5724    0.0000 H       1  UNL1        0.0268
     19 H           4.4766    2.2627    0.0000 H       1  UNL1        0.0268
     20 H           3.8660    3.7750    0.0000 H       1  UNL1        0.0295
     21 H           4.0000    0.0350    0.0000 H       1  UNL1        0.0238
     22 H           4.6200    0.6550    0.0000 H       1  UNL1        0.0238
     23 H           4.0000    1.2750    0.0000 H       1  UNL1        0.0238
     24 H           2.0000    1.2750    0.0000 H       1  UNL1        0.0238
     25 H           1.3800    0.6550    0.0000 H       1  UNL1        0.0238
     26 H           2.0000    0.0350    0.0000 H       1  UNL1        0.0238
     27 H           5.0420    3.1181    0.0000 H       1  UNL1        0.0232
     28 H           5.2690    3.9650    0.0000 H       1  UNL1        0.0232
     29 H           4.4220    4.1919    0.0000 H       1  UNL1        0.0232
     30 H           3.3100    4.1919    0.0000 H       1  UNL1        0.0232
     31 H           2.4631    3.9650    0.0000 H       1  UNL1        0.0232
     32 H           2.6900    3.1181    0.0000 H       1  UNL1        0.0232
     33 H           1.5970   -0.5350    0.0000 H       1  UNL1        0.0622
     34 H           4.4030   -0.5350    0.0000 H       1  UNL1        0.0622
     35 H           1.5970   -2.1550    0.0000 H       1  UNL1        0.0654
     36 H           4.4030   -2.1550    0.0000 H       1  UNL1        0.0654
     37 H           2.4631   -3.6550    0.0000 H       1  UNL1        0.2921
@<TRIPOS>BOND
     1     1    15    1
     2     1    37    1
     3     2     3    1
     4     2     6    1
     5     2     7    1
     6     2     8    1
     7     3     4    1
     8     3    16    1
     9     3    17    1
    10     4     5    1
    11     4    18    1
    12     4    19    1
    13     5     9    1
    14     5    10    1
    15     5    20    1
    16     6    11   ar
    17     6    12   ar
    18     7    21    1
    19     7    22    1
    20     7    23    1
    21     8    24    1
    22     8    25    1
    23     8    26    1
    24     9    27    1
    25     9    28    1
    26     9    29    1
    27    10    30    1
    28    10    31    1
    29    10    32    1
    30    11    13   ar
    31    11    33    1
    32    12    14   ar
    33    12    34    1
    34    13    15   ar
    35    13    35    1
    36    14    15   ar
    37    14    36    1
