@<TRIPOS>MOLECULE
IMPHY017885
 46 46 0 0 0
SMALL
GASTEIGER

@<TRIPOS>ATOM
      1 O           5.4641    2.5000    0.0000 O.3     1  UNL1       -0.4307
      2 O           4.5981    4.0000    0.0000 O.2     1  UNL1       -0.2501
      3 C           2.8660   -1.0000    0.0000 C.3     1  UNL1       -0.0184
      4 C           3.7320   -0.5000    0.0000 C.3     1  UNL1       -0.0429
      5 C           2.8660   -2.0000    0.0000 C.ar    1  UNL1       -0.0445
      6 C           3.7320    0.5000    0.0000 C.3     1  UNL1       -0.0308
      7 C           2.0000   -0.5000    0.0000 C.3     1  UNL1       -0.0584
      8 C           2.0000   -2.5000    0.0000 C.ar    1  UNL1       -0.0581
      9 C           3.7320   -2.5000    0.0000 C.ar    1  UNL1       -0.0581
     10 C           4.5981    1.0000    0.0000 C.2     1  UNL1       -0.0460
     11 C           2.0000   -3.5000    0.0000 C.ar    1  UNL1       -0.0586
     12 C           3.7320   -3.5000    0.0000 C.ar    1  UNL1       -0.0586
     13 C           2.8660   -4.0000    0.0000 C.ar    1  UNL1       -0.0504
     14 C           4.5981    2.0000    0.0000 C.2     1  UNL1        0.1018
     15 C           6.3301    4.0000    0.0000 C.3     1  UNL1        0.0512
     16 C           2.8660   -5.0000    0.0000 C.3     1  UNL1       -0.0397
     17 C           3.7320    2.5000    0.0000 C.3     1  UNL1       -0.0066
     18 C           5.4641    3.5000    0.0000 C.2     1  UNL1        0.3146
     19 C           6.3301    5.0000    0.0000 C.3     1  UNL1       -0.0525
     20 C           7.1962    3.5000    0.0000 C.3     1  UNL1       -0.0525
     21 H           2.8660   -0.3800    0.0000 H       1  UNL1        0.0346
     22 H           3.9441   -1.0826    0.0000 H       1  UNL1        0.0274
     23 H           4.3426   -0.3923    0.0000 H       1  UNL1        0.0274
     24 H           3.5200    1.0826    0.0000 H       1  UNL1        0.0309
     25 H           3.1215    0.3923    0.0000 H       1  UNL1        0.0309
     26 H           2.3100    0.0369    0.0000 H       1  UNL1        0.0236
     27 H           1.4631   -0.1900    0.0000 H       1  UNL1        0.0236
     28 H           1.6900   -1.0369    0.0000 H       1  UNL1        0.0236
     29 H           1.4631   -2.1900    0.0000 H       1  UNL1        0.0620
     30 H           4.2690   -2.1900    0.0000 H       1  UNL1        0.0620
     31 H           5.1350    0.6900    0.0000 H       1  UNL1        0.0605
     32 H           1.4631   -3.8100    0.0000 H       1  UNL1        0.0620
     33 H           4.2690   -3.8100    0.0000 H       1  UNL1        0.0620
     34 H           6.8671    4.3100    0.0000 H       1  UNL1        0.0408
     35 H           2.2460   -5.0000    0.0000 H       1  UNL1        0.0278
     36 H           2.8660   -5.6200    0.0000 H       1  UNL1        0.0278
     37 H           3.4860   -5.0000    0.0000 H       1  UNL1        0.0278
     38 H           4.0420    3.0369    0.0000 H       1  UNL1        0.0308
     39 H           3.1951    2.8100    0.0000 H       1  UNL1        0.0308
     40 H           3.4220    1.9631    0.0000 H       1  UNL1        0.0308
     41 H           6.9501    5.0000    0.0000 H       1  UNL1        0.0237
     42 H           6.3301    5.6200    0.0000 H       1  UNL1        0.0237
     43 H           5.7101    5.0000    0.0000 H       1  UNL1        0.0237
     44 H           6.8862    2.9631    0.0000 H       1  UNL1        0.0237
     45 H           7.7331    3.1900    0.0000 H       1  UNL1        0.0237
     46 H           7.5062    4.0369    0.0000 H       1  UNL1        0.0237
@<TRIPOS>BOND
     1     1    14    1
     2     1    18    1
     3     2    18    2
     4     3     4    1
     5     3     5    1
     6     3     7    1
     7     3    21    1
     8     4     6    1
     9     4    22    1
    10     4    23    1
    11     5     8   ar
    12     5     9   ar
    13     6    10    1
    14     6    24    1
    15     6    25    1
    16     7    26    1
    17     7    27    1
    18     7    28    1
    19     8    11   ar
    20     8    29    1
    21     9    12   ar
    22     9    30    1
    23    10    14    2
    24    10    31    1
    25    11    13   ar
    26    11    32    1
    27    12    13   ar
    28    12    33    1
    29    13    16    1
    30    14    17    1
    31    15    18    1
    32    15    19    1
    33    15    20    1
    34    15    34    1
    35    16    35    1
    36    16    36    1
    37    16    37    1
    38    17    38    1
    39    17    39    1
    40    17    40    1
    41    19    41    1
    42    19    42    1
    43    19    43    1
    44    20    44    1
    45    20    45    1
    46    20    46    1
