@<TRIPOS>MOLECULE
IMPHY010889
 39 39 0 0 0
SMALL
GASTEIGER

@<TRIPOS>ATOM
      1 O           4.5981   -0.2500    0.0000 O.3     1  UNL1       -0.4255
      2 O           6.3301   -0.2500    0.0000 O.2     1  UNL1       -0.2504
      3 C           2.8660   -1.2500    0.0000 C.3     1  UNL1       -0.0180
      4 C           3.7320   -1.7500    0.0000 C.ar    1  UNL1       -0.0024
      5 C           4.5981   -1.2500    0.0000 C.ar    1  UNL1        0.1353
      6 C           2.0000   -1.7500    0.0000 C.3     1  UNL1       -0.0585
      7 C           2.8660   -0.2500    0.0000 C.3     1  UNL1       -0.0585
      8 C           6.3301    1.7500    0.0000 C.3     1  UNL1       -0.0432
      9 C           3.7320   -2.7500    0.0000 C.ar    1  UNL1       -0.0546
     10 C           5.4641    1.2500    0.0000 C.3     1  UNL1        0.0453
     11 C           5.4641   -1.7500    0.0000 C.ar    1  UNL1       -0.0160
     12 C           6.3301    2.7500    0.0000 C.3     1  UNL1       -0.0554
     13 C           5.4641   -2.7500    0.0000 C.ar    1  UNL1       -0.0470
     14 C           4.5981   -3.2500    0.0000 C.ar    1  UNL1       -0.0583
     15 C           5.4641    0.2500    0.0000 C.2     1  UNL1        0.3123
     16 C           7.1962    3.2500    0.0000 C.3     1  UNL1       -0.0653
     17 C           6.3301   -3.2500    0.0000 C.3     1  UNL1       -0.0396
     18 H           2.8660   -1.8700    0.0000 H       1  UNL1        0.0345
     19 H           6.5422    1.1674    0.0000 H       1  UNL1        0.0270
     20 H           6.9407    1.8577    0.0000 H       1  UNL1        0.0270
     21 H           1.6900   -1.2131    0.0000 H       1  UNL1        0.0235
     22 H           1.4631   -2.0600    0.0000 H       1  UNL1        0.0235
     23 H           2.3100   -2.2869    0.0000 H       1  UNL1        0.0235
     24 H           3.4860   -0.2500    0.0000 H       1  UNL1        0.0235
     25 H           2.8660    0.3700    0.0000 H       1  UNL1        0.0235
     26 H           2.2460   -0.2500    0.0000 H       1  UNL1        0.0235
     27 H           3.1951   -3.0600    0.0000 H       1  UNL1        0.0622
     28 H           5.2520    1.8326    0.0000 H       1  UNL1        0.0378
     29 H           4.8535    1.1423    0.0000 H       1  UNL1        0.0378
     30 H           6.0010   -1.4400    0.0000 H       1  UNL1        0.0657
     31 H           6.1181    3.3326    0.0000 H       1  UNL1        0.0263
     32 H           5.7196    2.6423    0.0000 H       1  UNL1        0.0263
     33 H           4.5981   -3.8700    0.0000 H       1  UNL1        0.0620
     34 H           7.5062    2.7131    0.0000 H       1  UNL1        0.0230
     35 H           7.7331    3.5600    0.0000 H       1  UNL1        0.0230
     36 H           6.8862    3.7869    0.0000 H       1  UNL1        0.0230
     37 H           6.0201   -3.7869    0.0000 H       1  UNL1        0.0278
     38 H           6.8671   -3.5600    0.0000 H       1  UNL1        0.0278
     39 H           6.6401   -2.7131    0.0000 H       1  UNL1        0.0278
@<TRIPOS>BOND
     1     1     5    1
     2     1    15    1
     3     2    15    2
     4     3     4    1
     5     3     6    1
     6     3     7    1
     7     3    18    1
     8     4     5   ar
     9     4     9   ar
    10     5    11   ar
    11     6    21    1
    12     6    22    1
    13     6    23    1
    14     7    24    1
    15     7    25    1
    16     7    26    1
    17     8    10    1
    18     8    12    1
    19     8    19    1
    20     8    20    1
    21     9    14   ar
    22     9    27    1
    23    10    15    1
    24    10    28    1
    25    10    29    1
    26    11    13   ar
    27    11    30    1
    28    12    16    1
    29    12    31    1
    30    12    32    1
    31    13    14   ar
    32    13    17    1
    33    14    33    1
    34    16    34    1
    35    16    35    1
    36    16    36    1
    37    17    37    1
    38    17    38    1
    39    17    39    1
