@<TRIPOS>MOLECULE
IMPHY009878
 43 45 0 0 0
SMALL
GASTEIGER

@<TRIPOS>ATOM
      1 O           6.3580   -1.0209    0.0000 O.2     1  UNL1       -0.4507
      2 O           4.5981    2.0137    0.0000 O.3     1  UNL1       -0.4905
      3 O           4.5981   -1.9863    0.0000 O.3     1  UNL1       -0.4884
      4 O           2.8660    1.0137    0.0000 O.3     1  UNL1       -0.4884
      5 O           2.8660   -0.9863    0.0000 O.3     1  UNL1       -0.4883
      6 O           6.3465    2.0483    0.0000 O.2     1  UNL1       -0.2869
      7 C           5.4641    0.5137    0.0000 C.ar    1  UNL1        0.1130
      8 C           5.4641   -0.4863    0.0000 C.ar    1  UNL1        0.1881
      9 C           4.5981    1.0137    0.0000 C.ar    1  UNL1        0.1798
     10 C           4.5981   -0.9863    0.0000 C.ar    1  UNL1        0.2088
     11 C           3.7320    0.5137    0.0000 C.ar    1  UNL1        0.2082
     12 C           3.7320   -0.4863    0.0000 C.ar    1  UNL1        0.2110
     13 C           6.3580    1.0484    0.0000 C.ar    1  UNL1        0.1969
     14 C           7.2641   -0.5071    0.0000 C.ar    1  UNL1        0.1394
     15 C           7.2641    0.5346    0.0000 C.ar    1  UNL1        0.0288
     16 C           8.1282   -1.0104    0.0000 C.ar    1  UNL1        0.0174
     17 C           8.1244   -2.0104    0.0000 C.ar    1  UNL1       -0.0511
     18 C           8.9962   -0.5138    0.0000 C.ar    1  UNL1       -0.0511
     19 C           8.9884   -2.5137    0.0000 C.ar    1  UNL1       -0.0611
     20 C           9.8602   -1.0171    0.0000 C.ar    1  UNL1       -0.0611
     21 C           3.7320    2.5137    0.0000 C.3     1  UNL1        0.0790
     22 C           3.7320   -2.4863    0.0000 C.3     1  UNL1        0.0791
     23 C           2.0000    0.5137    0.0000 C.3     1  UNL1        0.0791
     24 C           2.0000   -0.4863    0.0000 C.3     1  UNL1        0.0791
     25 C           9.8564   -2.0171    0.0000 C.ar    1  UNL1       -0.0617
     26 H           7.7998    0.8466    0.0000 H       1  UNL1        0.0693
     27 H           7.5862   -2.3183    0.0000 H       1  UNL1        0.0625
     28 H           8.9985    0.1062    0.0000 H       1  UNL1        0.0625
     29 H           8.9860   -3.1337    0.0000 H       1  UNL1        0.0618
     30 H          10.3984   -0.7092    0.0000 H       1  UNL1        0.0618
     31 H           4.0420    3.0507    0.0000 H       1  UNL1        0.0660
     32 H           3.1951    2.8237    0.0000 H       1  UNL1        0.0660
     33 H           3.4220    1.9768    0.0000 H       1  UNL1        0.0660
     34 H           3.4220   -1.9493    0.0000 H       1  UNL1        0.0660
     35 H           3.1951   -2.7963    0.0000 H       1  UNL1        0.0660
     36 H           4.0420   -3.0232    0.0000 H       1  UNL1        0.0660
     37 H           1.6900    1.0507    0.0000 H       1  UNL1        0.0660
     38 H           1.4631    0.2037    0.0000 H       1  UNL1        0.0660
     39 H           2.3100   -0.0232    0.0000 H       1  UNL1        0.0660
     40 H           2.3100    0.0507    0.0000 H       1  UNL1        0.0660
     41 H           1.4631   -0.1763    0.0000 H       1  UNL1        0.0660
     42 H           1.6900   -1.0232    0.0000 H       1  UNL1        0.0660
     43 H          10.3921   -2.3292    0.0000 H       1  UNL1        0.0618
@<TRIPOS>BOND
     1     1     8   ar
     2     1    14   ar
     3     2     9    1
     4     2    21    1
     5     3    10    1
     6     3    22    1
     7     4    11    1
     8     4    23    1
     9     5    12    1
    10     5    24    1
    11     6    13    2
    12     7     8   ar
    13     7     9   ar
    14     7    13   ar
    15     8    10   ar
    16     9    11   ar
    17    10    12   ar
    18    11    12   ar
    19    13    15   ar
    20    14    15   ar
    21    14    16    1
    22    15    26    1
    23    16    17   ar
    24    16    18   ar
    25    17    19   ar
    26    17    27    1
    27    18    20   ar
    28    18    28    1
    29    19    25   ar
    30    19    29    1
    31    20    25   ar
    32    20    30    1
    33    21    31    1
    34    21    32    1
    35    21    33    1
    36    22    34    1
    37    22    35    1
    38    22    36    1
    39    23    37    1
    40    23    38    1
    41    23    39    1
    42    24    40    1
    43    24    41    1
    44    24    42    1
    45    25    43    1
