@<TRIPOS>MOLECULE
IMPHY016546
 29 28 0 0 0
SMALL
GASTEIGER

@<TRIPOS>ATOM
      1 O           5.4641    0.2500    0.0000 O.3     1  UNL1       -0.4644
      2 O           6.3301   -1.2500    0.0000 O.2     1  UNL1       -0.2505
      3 C           7.1962    0.2500    0.0000 C.3     1  UNL1        0.0534
      4 C           8.0622   -0.2500    0.0000 C.3     1  UNL1       -0.0432
      5 C           3.7320    0.2500    0.0000 C.3     1  UNL1       -0.0188
      6 C           4.5981   -0.2500    0.0000 C.3     1  UNL1        0.0925
      7 C           6.3301   -0.2500    0.0000 C.2     1  UNL1        0.3099
      8 C           7.1962    1.2500    0.0000 C.3     1  UNL1       -0.0523
      9 C           2.8660   -0.2500    0.0000 C.3     1  UNL1       -0.0528
     10 C           8.9282    0.2500    0.0000 C.3     1  UNL1       -0.0645
     11 C           2.0000    0.2500    0.0000 C.3     1  UNL1       -0.0652
     12 H           6.6592    0.5600    0.0000 H       1  UNL1        0.0410
     13 H           7.6636   -0.7249    0.0000 H       1  UNL1        0.0270
     14 H           8.4607   -0.7249    0.0000 H       1  UNL1        0.0270
     15 H           4.1306    0.7249    0.0000 H       1  UNL1        0.0298
     16 H           3.3335    0.7249    0.0000 H       1  UNL1        0.0298
     17 H           4.1996   -0.7249    0.0000 H       1  UNL1        0.0697
     18 H           4.9966   -0.7249    0.0000 H       1  UNL1        0.0697
     19 H           7.8162    1.2500    0.0000 H       1  UNL1        0.0238
     20 H           7.1962    1.8700    0.0000 H       1  UNL1        0.0238
     21 H           6.5762    1.2500    0.0000 H       1  UNL1        0.0238
     22 H           2.4675   -0.7249    0.0000 H       1  UNL1        0.0264
     23 H           3.2646   -0.7249    0.0000 H       1  UNL1        0.0264
     24 H           9.2382   -0.2869    0.0000 H       1  UNL1        0.0230
     25 H           9.4651    0.5600    0.0000 H       1  UNL1        0.0230
     26 H           8.6182    0.7869    0.0000 H       1  UNL1        0.0230
     27 H           2.3100    0.7869    0.0000 H       1  UNL1        0.0230
     28 H           1.4631    0.5600    0.0000 H       1  UNL1        0.0230
     29 H           1.6900   -0.2869    0.0000 H       1  UNL1        0.0230
@<TRIPOS>BOND
     1     1     6    1
     2     1     7    1
     3     2     7    2
     4     3     4    1
     5     3     7    1
     6     3     8    1
     7     3    12    1
     8     4    10    1
     9     4    13    1
    10     4    14    1
    11     5     6    1
    12     5     9    1
    13     5    15    1
    14     5    16    1
    15     6    17    1
    16     6    18    1
    17     8    19    1
    18     8    20    1
    19     8    21    1
    20     9    11    1
    21     9    22    1
    22     9    23    1
    23    10    24    1
    24    10    25    1
    25    10    26    1
    26    11    27    1
    27    11    28    1
    28    11    29    1
