@<TRIPOS>MOLECULE
IMPHY008769
 160 168 0 0 0
SMALL
GASTEIGER

@<TRIPOS>ATOM
      1 O          14.7182   -3.1902    0.0000 O.3     1  UNL1       -0.3424
      2 O          12.6032   -4.4894    0.0000 O.3     1  UNL1       -0.3850
      3 O          15.0206   -5.1304    0.0000 O.3     1  UNL1       -0.3641
      4 O           5.8671   -0.3006    0.0000 O.3     1  UNL1       -0.3377
      5 O           6.8671   -1.3006    0.0000 O.3     1  UNL1       -0.3143
      6 O           8.3671    0.5654    0.0000 O.3     1  UNL1       -0.3374
      7 O           7.3671    2.2974    0.0000 O.3     1  UNL1       -0.3864
      8 O           5.3671    2.2974    0.0000 O.3     1  UNL1       -0.3865
      9 O           5.1350   -1.3006    0.0000 O.3     1  UNL1       -0.3404
     10 O          18.7195   -2.4583    0.0000 O.3     1  UNL1       -0.3484
     11 O           8.3671    2.2974    0.0000 O.3     1  UNL1       -0.3405
     12 O           3.8671    1.4314    0.0000 O.3     1  UNL1       -0.3924
     13 O           6.8671   -3.3006    0.0000 O.3     1  UNL1       -0.3841
     14 O           5.1350   -4.3006    0.0000 O.3     1  UNL1       -0.3864
     15 O          10.3671    0.5654    0.0000 O.3     1  UNL1       -0.3841
     16 O           3.4030   -3.3006    0.0000 O.3     1  UNL1       -0.3865
     17 O          18.7247   -0.7263    0.0000 O.3     1  UNL1       -0.3405
     18 O          11.3671    2.2974    0.0000 O.3     1  UNL1       -0.3864
     19 O          10.3671    4.0295    0.0000 O.3     1  UNL1       -0.3865
     20 O           2.5369   -1.8006    0.0000 O.3     1  UNL1       -0.3924
     21 O          20.7195   -2.4643    0.0000 O.3     1  UNL1       -0.3841
     22 O           8.8671    4.8955    0.0000 O.3     1  UNL1       -0.3924
     23 O          21.7247   -0.7353    0.0000 O.3     1  UNL1       -0.3864
     24 O          20.7299    0.9998    0.0000 O.3     1  UNL1       -0.3865
     25 O          19.2325    1.8703    0.0000 O.3     1  UNL1       -0.3924
     26 C          12.2483   -3.3737    0.0000 C.3     1  UNL1        0.0028
     27 C          12.2522   -2.3737    0.0000 C.3     1  UNL1       -0.0271
     28 C          13.1934   -3.6821    0.0000 C.3     1  UNL1        0.1051
     29 C          11.3881   -1.8704    0.0000 C.3     1  UNL1       -0.0305
     30 C          13.7801   -2.8796    0.0000 C.3     1  UNL1        0.0918
     31 C          10.5202   -2.3670    0.0000 C.3     1  UNL1       -0.0285
     32 C          13.1996   -2.0726    0.0000 C.3     1  UNL1       -0.0201
     33 C          11.3804   -3.8704    0.0000 C.3     1  UNL1       -0.0444
     34 C          13.7739   -4.4818    0.0000 C.3     1  UNL1        0.0419
     35 C          10.5163   -3.3670    0.0000 C.3     1  UNL1       -0.0486
     36 C           9.6121   -1.8567    0.0000 C.3     1  UNL1       -0.0080
     37 C          14.7144   -4.1784    0.0000 C.3     1  UNL1        0.1729
     38 C          11.9028   -4.3121    0.0000 C.3     1  UNL1       -0.0566
     39 C          11.4082   -0.8290    0.0000 C.3     1  UNL1       -0.0311
     40 C           9.6081   -0.8151    0.0000 C.2     1  UNL1       -0.0668
     41 C           8.6831   -2.4172    0.0000 C.3     1  UNL1       -0.0432
     42 C          10.5122   -0.2977    0.0000 C.2     1  UNL1       -0.0839
     43 C          13.4637   -5.4325    0.0000 C.3     1  UNL1       -0.0548
     44 C           9.6160   -2.8567    0.0000 C.3     1  UNL1       -0.0556
     45 C           8.6748   -0.2618    0.0000 C.3     1  UNL1       -0.0234
     46 C          15.7144   -4.1814    0.0000 C.3     1  UNL1        0.0019
     47 C           7.7331   -0.8006    0.0000 C.3     1  UNL1        0.0196
     48 C           7.7373   -1.8856    0.0000 C.3     1  UNL1       -0.0441
     49 C           6.8671   -0.3006    0.0000 C.3     1  UNL1        0.2052
     50 C          16.2170   -3.3169    0.0000 C.3     1  UNL1       -0.0435
     51 C           7.3671    0.5654    0.0000 C.3     1  UNL1        0.1440
     52 C          17.2170   -3.3199    0.0000 C.3     1  UNL1       -0.0201
     53 C           6.8671    1.4314    0.0000 C.3     1  UNL1        0.1147
     54 C           5.3671    0.5654    0.0000 C.3     1  UNL1        0.1133
     55 C           5.8671    1.4314    0.0000 C.3     1  UNL1        0.1119
     56 C          17.7195   -2.4554    0.0000 C.3     1  UNL1        0.0533
     57 C          17.7144   -4.1874    0.0000 C.3     1  UNL1       -0.0603
     58 C           6.0010   -1.8006    0.0000 C.3     1  UNL1        0.1912
     59 C           4.3671    0.5654    0.0000 C.3     1  UNL1        0.0730
     60 C           8.8671    1.4314    0.0000 C.3     1  UNL1        0.1886
     61 C           6.0010   -2.8006    0.0000 C.3     1  UNL1        0.1342
     62 C           5.1350   -3.3006    0.0000 C.3     1  UNL1        0.1141
     63 C           9.8671    1.4314    0.0000 C.3     1  UNL1        0.1341
     64 C           4.2690   -1.8006    0.0000 C.3     1  UNL1        0.1130
     65 C           4.2690   -2.8006    0.0000 C.3     1  UNL1        0.1119
     66 C          19.2221   -1.5938    0.0000 C.3     1  UNL1        0.1879
     67 C          10.3671    2.2974    0.0000 C.3     1  UNL1        0.1141
     68 C           8.8671    3.1635    0.0000 C.3     1  UNL1        0.1130
     69 C           9.8671    3.1635    0.0000 C.3     1  UNL1        0.1119
     70 C           3.4030   -1.3006    0.0000 C.3     1  UNL1        0.0730
     71 C          20.2221   -1.5968    0.0000 C.3     1  UNL1        0.1341
     72 C           8.3671    4.0295    0.0000 C.3     1  UNL1        0.0730
     73 C          20.7247   -0.7323    0.0000 C.3     1  UNL1        0.1141
     74 C          19.2273    0.1382    0.0000 C.3     1  UNL1        0.1130
     75 C          20.2273    0.1352    0.0000 C.3     1  UNL1        0.1119
     76 C          18.7299    1.0058    0.0000 C.3     1  UNL1        0.0730
     77 H          12.3202   -1.7575    0.0000 H       1  UNL1        0.0311
     78 H          11.9286   -1.5666    0.0000 H       1  UNL1        0.0310
     79 H          14.2832   -2.1945    0.0000 H       1  UNL1        0.0626
     80 H          11.0559   -2.6791    0.0000 H       1  UNL1        0.0312
     81 H          13.7382   -1.7655    0.0000 H       1  UNL1        0.0294
     82 H          12.9507   -1.5048    0.0000 H       1  UNL1        0.0294
     83 H          10.9800   -4.3438    0.0000 H       1  UNL1        0.0272
     84 H          11.7771   -4.3469    0.0000 H       1  UNL1        0.0272
     85 H          13.1615   -4.5783    0.0000 H       1  UNL1        0.0379
     86 H           9.9061   -3.2570    0.0000 H       1  UNL1        0.0268
     87 H          10.3020   -3.9488    0.0000 H       1  UNL1        0.0268
     88 H          11.3210   -4.0979    0.0000 H       1  UNL1        0.0236
     89 H          11.6886   -4.8939    0.0000 H       1  UNL1        0.0236
     90 H          12.4846   -4.5264    0.0000 H       1  UNL1        0.0236
     91 H          12.0169   -0.9468    0.0000 H       1  UNL1        0.0310
     92 H          11.6284   -0.2494    0.0000 H       1  UNL1        0.0310
     93 H           8.2913   -2.8977    0.0000 H       1  UNL1        0.0274
     94 H           9.0895   -2.8854    0.0000 H       1  UNL1        0.0274
     95 H          12.8537   -5.0565    0.0000 H       1  UNL1        0.2103
     96 H          10.5170    0.3222    0.0000 H       1  UNL1        0.0572
     97 H          12.8743   -5.2401    0.0000 H       1  UNL1        0.0235
     98 H          13.2714   -6.0219    0.0000 H       1  UNL1        0.0235
     99 H          14.0531   -5.6248    0.0000 H       1  UNL1        0.0235
    100 H           8.9960   -2.8591    0.0000 H       1  UNL1        0.0238
    101 H           9.6184   -3.4767    0.0000 H       1  UNL1        0.0238
    102 H          10.2360   -2.8543    0.0000 H       1  UNL1        0.0238
    103 H           9.0776    0.2096    0.0000 H       1  UNL1        0.0315
    104 H           8.2793    0.2157    0.0000 H       1  UNL1        0.0315
    105 H          15.6049   -4.7917    0.0000 H       1  UNL1        0.0317
    106 H          16.2964   -4.3952    0.0000 H       1  UNL1        0.0317
    107 H           7.7343   -0.1806    0.0000 H       1  UNL1        0.0357
    108 H           7.1260   -1.7819    0.0000 H       1  UNL1        0.0270
    109 H           7.5305   -2.4701    0.0000 H       1  UNL1        0.0270
    110 H          15.6266   -5.2611    0.0000 H       1  UNL1        0.2128
    111 H          16.3265   -2.7066    0.0000 H       1  UNL1        0.0270
    112 H          15.6350   -3.1031    0.0000 H       1  UNL1        0.0270
    113 H           7.6771    1.1023    0.0000 H       1  UNL1        0.0678
    114 H          16.9054   -3.8559    0.0000 H       1  UNL1        0.0320
    115 H           6.5571    1.9684    0.0000 H       1  UNL1        0.0648
    116 H           5.0571    0.0285    0.0000 H       1  UNL1        0.0647
    117 H           6.6636    1.9684    0.0000 H       1  UNL1        0.0647
    118 H          17.8290   -1.8451    0.0000 H       1  UNL1        0.0563
    119 H          17.1376   -2.2416    0.0000 H       1  UNL1        0.0563
    120 H          17.1765   -4.4958    0.0000 H       1  UNL1        0.0233
    121 H          18.0228   -4.7252    0.0000 H       1  UNL1        0.0233
    122 H          18.2522   -3.8790    0.0000 H       1  UNL1        0.0233
    123 H           6.0010   -1.1806    0.0000 H       1  UNL1        0.0939
    124 H           3.7844    0.3533    0.0000 H       1  UNL1        0.0584
    125 H           4.4747   -0.0452    0.0000 H       1  UNL1        0.0584
    126 H           8.2471    1.4314    0.0000 H       1  UNL1        0.0938
    127 H           6.0010   -3.4206    0.0000 H       1  UNL1        0.0671
    128 H           7.0571    2.8344    0.0000 H       1  UNL1        0.2100
    129 H           5.6771    2.8344    0.0000 H       1  UNL1        0.2100
    130 H           4.5981   -3.6106    0.0000 H       1  UNL1        0.0648
    131 H          10.4871    1.4314    0.0000 H       1  UNL1        0.0671
    132 H           4.2690   -1.1806    0.0000 H       1  UNL1        0.0647
    133 H           3.7320   -2.4906    0.0000 H       1  UNL1        0.0647
    134 H          19.5305   -2.1317    0.0000 H       1  UNL1        0.0937
    135 H           3.2471    1.4314    0.0000 H       1  UNL1        0.2095
    136 H          10.6771    2.8344    0.0000 H       1  UNL1        0.0648
    137 H           6.8671   -3.9206    0.0000 H       1  UNL1        0.2101
    138 H           8.2471    3.1635    0.0000 H       1  UNL1        0.0647
    139 H           9.5571    3.7004    0.0000 H       1  UNL1        0.0647
    140 H           3.8015   -0.8257    0.0000 H       1  UNL1        0.0584
    141 H           3.0044   -0.8257    0.0000 H       1  UNL1        0.0584
    142 H          20.8421   -1.5986    0.0000 H       1  UNL1        0.0671
    143 H           4.5981   -4.6106    0.0000 H       1  UNL1        0.2100
    144 H          10.9871    0.5654    0.0000 H       1  UNL1        0.2101
    145 H           3.4030   -3.9206    0.0000 H       1  UNL1        0.2100
    146 H           7.8921    4.4280    0.0000 H       1  UNL1        0.0584
    147 H           7.8921    3.6310    0.0000 H       1  UNL1        0.0584
    148 H          21.0363   -0.1963    0.0000 H       1  UNL1        0.0648
    149 H          18.6073    0.1401    0.0000 H       1  UNL1        0.0647
    150 H          11.6771    2.8344    0.0000 H       1  UNL1        0.2100
    151 H          19.9189    0.6731    0.0000 H       1  UNL1        0.0647
    152 H          10.9871    4.0295    0.0000 H       1  UNL1        0.2100
    153 H           2.0000   -1.4906    0.0000 H       1  UNL1        0.2095
    154 H          21.3395   -2.4662    0.0000 H       1  UNL1        0.2101
    155 H          18.2561    1.4057    0.0000 H       1  UNL1        0.0584
    156 H          18.2538    0.6086    0.0000 H       1  UNL1        0.0584
    157 H           8.5571    5.4325    0.0000 H       1  UNL1        0.2095
    158 H          22.0363   -0.1993    0.0000 H       1  UNL1        0.2100
    159 H          21.3499    0.9979    0.0000 H       1  UNL1        0.2100
    160 H          18.9241    2.4081    0.0000 H       1  UNL1        0.2095
@<TRIPOS>BOND
     1     1    30    1
     2     1    37    1
     3     2    28    1
     4     2    95    1
     5    37     3    1
     6     3   110    1
     7     4    49    1
     8     4    54    1
     9    49     5    1
    10    58     5    1
    11    51     6    1
    12    60     6    1
    13    53     7    1
    14     7   128    1
    15    55     8    1
    16     8   129    1
    17     9    58    1
    18     9    64    1
    19    10    56    1
    20    66    10    1
    21    11    60    1
    22    11    68    1
    23    12    59    1
    24    12   135    1
    25    61    13    1
    26    13   137    1
    27    62    14    1
    28    14   143    1
    29    63    15    1
    30    15   144    1
    31    65    16    1
    32    16   145    1
    33    17    66    1
    34    17    74    1
    35    67    18    1
    36    18   150    1
    37    69    19    1
    38    19   152    1
    39    20    70    1
    40    20   153    1
    41    71    21    1
    42    21   154    1
    43    22    72    1
    44    22   157    1
    45    73    23    1
    46    23   158    1
    47    75    24    1
    48    24   159    1
    49    25    76    1
    50    25   160    1
    51    26    27    1
    52    26    28    1
    53    26    33    1
    54    26    38    1
    55    27    29    1
    56    27    32    1
    57    27    77    1
    58    28    30    1
    59    28    34    1
    60    29    31    1
    61    29    39    1
    62    29    78    1
    63    30    32    1
    64    30    79    1
    65    31    35    1
    66    31    36    1
    67    31    80    1
    68    32    81    1
    69    32    82    1
    70    33    35    1
    71    33    83    1
    72    33    84    1
    73    34    37    1
    74    34    43    1
    75    34    85    1
    76    35    86    1
    77    35    87    1
    78    36    40    1
    79    36    41    1
    80    36    44    1
    81    37    46    1
    82    38    88    1
    83    38    89    1
    84    38    90    1
    85    39    42    1
    86    39    91    1
    87    39    92    1
    88    40    42    2
    89    40    45    1
    90    41    48    1
    91    41    93    1
    92    41    94    1
    93    42    96    1
    94    43    97    1
    95    43    98    1
    96    43    99    1
    97    44   100    1
    98    44   101    1
    99    44   102    1
   100    45    47    1
   101    45   103    1
   102    45   104    1
   103    46    50    1
   104    46   105    1
   105    46   106    1
   106    47    48    1
   107    47    49    1
   108    47   107    1
   109    48   108    1
   110    48   109    1
   111    49    51    1
   112    50    52    1
   113    50   111    1
   114    50   112    1
   115    51    53    1
   116    51   113    1
   117    52    56    1
   118    52    57    1
   119    52   114    1
   120    53    55    1
   121    53   115    1
   122    54    55    1
   123    54    59    1
   124    54   116    1
   125    55   117    1
   126    56   118    1
   127    56   119    1
   128    57   120    1
   129    57   121    1
   130    57   122    1
   131    58    61    1
   132    58   123    1
   133    59   124    1
   134    59   125    1
   135    60    63    1
   136    60   126    1
   137    61    62    1
   138    61   127    1
   139    62    65    1
   140    62   130    1
   141    63    67    1
   142    63   131    1
   143    64    65    1
   144    64    70    1
   145    64   132    1
   146    65   133    1
   147    66    71    1
   148    66   134    1
   149    67    69    1
   150    67   136    1
   151    68    69    1
   152    68    72    1
   153    68   138    1
   154    69   139    1
   155    70   140    1
   156    70   141    1
   157    71    73    1
   158    71   142    1
   159    72   146    1
   160    72   147    1
   161    73    75    1
   162    73   148    1
   163    74    75    1
   164    74    76    1
   165    74   149    1
   166    75   151    1
   167    76   155    1
   168    76   156    1
