@<TRIPOS>MOLECULE
IMPHY012782
 55 58 0 0 0
SMALL
GASTEIGER

@<TRIPOS>ATOM
      1 O           4.5841   -2.0841    0.0000 O.3     1  UNL1       -0.4791
      2 O           7.2342   -0.5356    0.0000 O.2     1  UNL1       -0.4538
      3 O           4.6361    0.9644    0.0000 O.2     1  UNL1       -0.2865
      4 O           5.4803    2.4958    0.0000 O.3     1  UNL1       -0.5055
      5 O           9.0201    2.5095    0.0000 O.3     1  UNL1       -0.5062
      6 O           6.4213   -5.2324    0.0000 O.3     1  UNL1       -0.5066
      7 C           5.5021   -0.5356    0.0000 C.ar    1  UNL1        0.0869
      8 C           4.5921   -1.0425    0.0000 C.3     1  UNL1        0.1507
      9 C           6.3682   -1.0356    0.0000 C.ar    1  UNL1        0.1498
     10 C           6.3682    0.9644    0.0000 C.ar    1  UNL1        0.1062
     11 C           6.3842   -2.0771    0.0000 C.ar    1  UNL1        0.0597
     12 C           5.5021    0.4644    0.0000 C.ar    1  UNL1        0.2036
     13 C           7.2342    0.4644    0.0000 C.ar    1  UNL1        0.1463
     14 C           5.4862   -2.6049    0.0000 C.ar    1  UNL1        0.1360
     15 C           6.3521    2.0059    0.0000 C.ar    1  UNL1        0.1381
     16 C           7.2501    2.5336    0.0000 C.ar    1  UNL1        0.0400
     17 C           3.7319   -0.5325    0.0000 C.2     1  UNL1       -0.0406
     18 C           8.1442    0.9712    0.0000 C.ar    1  UNL1        0.0234
     19 C           8.1522    2.0128    0.0000 C.ar    1  UNL1        0.1273
     20 C           7.3361   -2.5978    0.0000 C.ar    1  UNL1       -0.0441
     21 C           7.2463    3.5336    0.0000 C.3     1  UNL1       -0.0023
     22 C           5.4778   -3.6899    0.0000 C.ar    1  UNL1        0.0223
     23 C           2.8602   -1.0224    0.0000 C.2     1  UNL1       -0.0759
     24 C           7.3529   -3.6826    0.0000 C.ar    1  UNL1       -0.0193
     25 C           6.4174   -4.2324    0.0000 C.ar    1  UNL1        0.1204
     26 C           8.1104    4.0370    0.0000 C.2     1  UNL1       -0.0807
     27 C           2.0000   -0.5125    0.0000 C.3     1  UNL1       -0.0439
     28 C           2.8486   -2.0224    0.0000 C.3     1  UNL1       -0.0439
     29 C           8.1065    5.0369    0.0000 C.2     1  UNL1       -0.0793
     30 C           8.9706    5.5403    0.0000 C.3     1  UNL1       -0.0440
     31 C           7.2386    5.5336    0.0000 C.3     1  UNL1       -0.0440
     32 H           4.0522   -1.3473    0.0000 H       1  UNL1        0.0833
     33 H           3.7391    0.0875    0.0000 H       1  UNL1        0.0611
     34 H           8.6775    0.6550    0.0000 H       1  UNL1        0.0691
     35 H           7.8670   -2.2775    0.0000 H       1  UNL1        0.0627
     36 H           7.0320    4.1154    0.0000 H       1  UNL1        0.0358
     37 H           6.6361    3.4236    0.0000 H       1  UNL1        0.0358
     38 H           4.9397   -3.9978    0.0000 H       1  UNL1        0.0691
     39 H           7.8934   -3.9864    0.0000 H       1  UNL1        0.0654
     40 H           8.6485    3.7290    0.0000 H       1  UNL1        0.0575
     41 H           2.3162    0.0208    0.0000 H       1  UNL1        0.0274
     42 H           1.4667   -0.1963    0.0000 H       1  UNL1        0.0274
     43 H           1.6838   -1.0458    0.0000 H       1  UNL1        0.0274
     44 H           2.2287   -2.0152    0.0000 H       1  UNL1        0.0274
     45 H           2.8414   -2.6424    0.0000 H       1  UNL1        0.0274
     46 H           3.4686   -2.0296    0.0000 H       1  UNL1        0.0274
     47 H           5.4732    3.1158    0.0000 H       1  UNL1        0.2922
     48 H           9.5559    2.1974    0.0000 H       1  UNL1        0.2921
     49 H           6.9594   -5.5403    0.0000 H       1  UNL1        0.2921
     50 H           9.2827    5.0045    0.0000 H       1  UNL1        0.0274
     51 H           9.5063    5.8524    0.0000 H       1  UNL1        0.0274
     52 H           8.6585    6.0760    0.0000 H       1  UNL1        0.0274
     53 H           7.5465    6.0717    0.0000 H       1  UNL1        0.0274
     54 H           6.7004    5.8415    0.0000 H       1  UNL1        0.0274
     55 H           6.9306    4.9955    0.0000 H       1  UNL1        0.0274
@<TRIPOS>BOND
     1     1     8    1
     2     1    14    1
     3     2     9   ar
     4     2    13   ar
     5     3    12    2
     6     4    15    1
     7     4    47    1
     8     5    19    1
     9     5    48    1
    10     6    25    1
    11     6    49    1
    12     7     8    1
    13     7     9   ar
    14     7    12   ar
    15     8    17    1
    16     8    32    1
    17     9    11    1
    18    10    12   ar
    19    10    13   ar
    20    10    15   ar
    21    11    14   ar
    22    11    20   ar
    23    13    18   ar
    24    14    22   ar
    25    15    16   ar
    26    16    19   ar
    27    16    21    1
    28    17    23    2
    29    17    33    1
    30    18    19   ar
    31    18    34    1
    32    20    24   ar
    33    20    35    1
    34    21    26    1
    35    21    36    1
    36    21    37    1
    37    22    25   ar
    38    22    38    1
    39    23    27    1
    40    23    28    1
    41    24    25   ar
    42    24    39    1
    43    26    29    2
    44    26    40    1
    45    27    41    1
    46    27    42    1
    47    27    43    1
    48    28    44    1
    49    28    45    1
    50    28    46    1
    51    29    30    1
    52    29    31    1
    53    30    50    1
    54    30    51    1
    55    30    52    1
    56    31    53    1
    57    31    54    1
    58    31    55    1
