@<TRIPOS>MOLECULE
IMPHY012809
 35 36 0 0 0
SMALL
GASTEIGER

@<TRIPOS>ATOM
      1 O           8.1240   -1.8137    0.0000 O.3     1  UNL1       -0.3865
      2 O           8.1240    1.6968    0.0000 O.2     1  UNL1       -0.2917
      3 O           2.5369    0.9416    0.0000 O.3     1  UNL1       -0.3947
      4 C           8.3969   -0.0584    0.0000 C.3     1  UNL1        0.0494
      5 C           7.8133   -0.8632    0.0000 C.3     1  UNL1        0.0904
      6 C           6.8671   -0.5584    0.0000 C.ar    1  UNL1       -0.0075
      7 C           6.8671    0.4416    0.0000 C.ar    1  UNL1        0.0266
      8 C           7.8133    0.7463    0.0000 C.2     1  UNL1        0.1693
      9 C           6.0010    0.9416    0.0000 C.ar    1  UNL1       -0.0361
     10 C           5.1350    0.4416    0.0000 C.ar    1  UNL1       -0.0387
     11 C           6.0010   -1.0584    0.0000 C.ar    1  UNL1       -0.0522
     12 C           5.1350   -0.5584    0.0000 C.ar    1  UNL1       -0.0466
     13 C           9.3969   -0.0584    0.0000 C.3     1  UNL1       -0.0526
     14 C           4.2690    0.9416    0.0000 C.3     1  UNL1       -0.0039
     15 C           6.0010    1.9416    0.0000 C.3     1  UNL1       -0.0388
     16 C           4.2690   -1.0584    0.0000 C.3     1  UNL1       -0.0394
     17 C           3.4030    0.4416    0.0000 C.3     1  UNL1        0.0482
     18 H           8.6786   -0.6107    0.0000 H       1  UNL1        0.0407
     19 H           7.3758   -1.3025    0.0000 H       1  UNL1        0.0651
     20 H           6.0010   -1.6784    0.0000 H       1  UNL1        0.0624
     21 H           9.3969   -0.6784    0.0000 H       1  UNL1        0.0237
     22 H          10.0169   -0.0584    0.0000 H       1  UNL1        0.0237
     23 H           9.3969    0.5616    0.0000 H       1  UNL1        0.0237
     24 H           4.6675    1.4165    0.0000 H       1  UNL1        0.0335
     25 H           3.8705    1.4165    0.0000 H       1  UNL1        0.0335
     26 H           6.6210    1.9416    0.0000 H       1  UNL1        0.0278
     27 H           6.0010    2.5616    0.0000 H       1  UNL1        0.0278
     28 H           5.3810    1.9416    0.0000 H       1  UNL1        0.0278
     29 H           8.7306   -1.9416    0.0000 H       1  UNL1        0.2103
     30 H           3.9590   -0.5215    0.0000 H       1  UNL1        0.0278
     31 H           3.7320   -1.3684    0.0000 H       1  UNL1        0.0278
     32 H           4.5790   -1.5954    0.0000 H       1  UNL1        0.0278
     33 H           3.0044   -0.0334    0.0000 H       1  UNL1        0.0560
     34 H           3.8015   -0.0334    0.0000 H       1  UNL1        0.0560
     35 H           2.0000    0.6316    0.0000 H       1  UNL1        0.2094
@<TRIPOS>BOND
     1     1     5    1
     2     1    29    1
     3     2     8    2
     4     3    17    1
     5     3    35    1
     6     4     5    1
     7     4     8    1
     8     4    13    1
     9     4    18    1
    10     5     6    1
    11     5    19    1
    12     6     7   ar
    13     6    11   ar
    14     7     8    1
    15     7     9   ar
    16     9    10   ar
    17     9    15    1
    18    10    12   ar
    19    10    14    1
    20    11    12   ar
    21    11    20    1
    22    12    16    1
    23    13    21    1
    24    13    22    1
    25    13    23    1
    26    14    17    1
    27    14    24    1
    28    14    25    1
    29    15    26    1
    30    15    27    1
    31    15    28    1
    32    16    30    1
    33    16    31    1
    34    16    32    1
    35    17    33    1
    36    17    34    1
