@<TRIPOS>MOLECULE
IMPHY000351
 79 85 0 0 0
SMALL
GASTEIGER

@<TRIPOS>ATOM
      1 O           6.2964   -1.6199    0.0000 O.3     1  UNL1       -0.4519
      2 O           6.5694   -2.2878    0.0000 O.3     1  UNL1       -0.3244
      3 O           3.8693   -1.0321    0.0000 O.3     1  UNL1       -0.3580
      4 O           6.5434    2.0750    0.0000 O.3     1  UNL1       -0.4799
      5 O           2.9182   -1.4318    0.0000 O.2     1  UNL1       -0.4923
      6 O           8.0900   -0.6755    0.0000 O.3     1  UNL1       -0.3748
      7 O           2.6884   -3.4671    0.0000 O.2     1  UNL1       -0.4885
      8 O           3.5810    0.7151    0.0000 O.3     1  UNL1       -0.5029
      9 O           4.4632    1.9952    0.0000 O.3     1  UNL1       -0.4885
     10 O           4.3455   -4.6711    0.0000 O.2     1  UNL1       -0.2834
     11 C           5.4874   -2.2077    0.0000 C.3     1  UNL1        0.2842
     12 C           4.6784   -1.6199    0.0000 C.3     1  UNL1        0.2312
     13 C           4.9874   -0.6688    0.0000 C.ar    1  UNL1        0.0858
     14 C           5.3945   -3.2452    0.0000 C.2     1  UNL1        0.0738
     15 C           5.9874   -0.6688    0.0000 C.ar    1  UNL1        0.1442
     16 C           3.7204   -2.0288    0.0000 C.2     1  UNL1        0.1859
     17 C           6.5220    0.2251    0.0000 C.ar    1  UNL1        0.0688
     18 C           7.2023   -3.3303    0.0000 C.3     1  UNL1        0.0918
     19 C           7.6067    0.2000    0.0000 C.3     1  UNL1        0.0939
     20 C           6.7469   -4.2796    0.0000 C.3     1  UNL1       -0.0032
     21 C           4.4527    0.2251    0.0000 C.ar    1  UNL1        0.1724
     22 C           5.8358   -4.2364    0.0000 C.2     1  UNL1       -0.0679
     23 C           4.4462   -3.6762    0.0000 C.2     1  UNL1        0.2328
     24 C           3.6035   -3.0639    0.0000 C.2     1  UNL1        0.2083
     25 C           6.0082    1.1312    0.0000 C.ar    1  UNL1        0.1756
     26 C           8.1636    1.1312    0.0000 C.3     1  UNL1        0.0192
     27 C           4.9666    1.1312    0.0000 C.ar    1  UNL1        0.2043
     28 C           7.6284    2.0750    0.0000 C.3     1  UNL1        0.1280
     29 C           8.1983   -3.2414    0.0000 C.ar    1  UNL1       -0.0184
     30 C           3.4626   -0.1186    0.0000 C.3     1  UNL1        0.0384
     31 C           8.1318    2.9390    0.0000 C.ar    1  UNL1       -0.0073
     32 C           8.7734   -4.0594    0.0000 C.ar    1  UNL1       -0.0561
     33 C           8.6193   -2.3343    0.0000 C.ar    1  UNL1       -0.0561
     34 C           2.0000   -1.8279    0.0000 C.3     1  UNL1        0.0787
     35 C           9.0898   -0.6948    0.0000 C.3     1  UNL1        0.0372
     36 C           2.5800   -4.4612    0.0000 C.3     1  UNL1        0.0791
     37 C           9.1317    2.9352    0.0000 C.ar    1  UNL1       -0.0551
     38 C           7.6351    3.8070    0.0000 C.ar    1  UNL1       -0.0551
     39 C           9.7694   -3.9705    0.0000 C.ar    1  UNL1       -0.0614
     40 C           9.6153   -2.2453    0.0000 C.ar    1  UNL1       -0.0614
     41 C           4.9599    2.8632    0.0000 C.3     1  UNL1        0.0791
     42 C          10.1904   -3.0634    0.0000 C.ar    1  UNL1       -0.0617
     43 C           9.6351    3.7993    0.0000 C.ar    1  UNL1       -0.0614
     44 C           8.1384    4.6711    0.0000 C.ar    1  UNL1       -0.0614
     45 C           9.1384    4.6672    0.0000 C.ar    1  UNL1       -0.0617
     46 H           7.5556   -3.8398    0.0000 H       1  UNL1        0.0651
     47 H           7.2854   -0.3302    0.0000 H       1  UNL1        0.0650
     48 H           6.6355   -4.8895    0.0000 H       1  UNL1        0.0336
     49 H           7.3366   -4.4711    0.0000 H       1  UNL1        0.0336
     50 H           5.4859   -4.7482    0.0000 H       1  UNL1        0.0579
     51 H           8.6334    0.7266    0.0000 H       1  UNL1        0.0333
     52 H           8.6427    1.5248    0.0000 H       1  UNL1        0.0333
     53 H           7.3194    2.6125    0.0000 H       1  UNL1        0.0785
     54 H           4.0290    0.1336    0.0000 H       1  UNL1        0.0524
     55 H           3.2104    0.4478    0.0000 H       1  UNL1        0.0524
     56 H           2.8962   -0.3707    0.0000 H       1  UNL1        0.0524
     57 H           3.5738    1.3350    0.0000 H       1  UNL1        0.2923
     58 H           8.5124   -4.6218    0.0000 H       1  UNL1        0.0621
     59 H           8.2627   -1.8270    0.0000 H       1  UNL1        0.0621
     60 H           1.7544   -1.2586    0.0000 H       1  UNL1        0.0660
     61 H           1.4307   -2.0735    0.0000 H       1  UNL1        0.0660
     62 H           2.2456   -2.3972    0.0000 H       1  UNL1        0.0660
     63 H           9.0778   -1.3147    0.0000 H       1  UNL1        0.0524
     64 H           9.7096   -0.7067    0.0000 H       1  UNL1        0.0524
     65 H           9.1017   -0.0749    0.0000 H       1  UNL1        0.0524
     66 H           1.9637   -4.3940    0.0000 H       1  UNL1        0.0660
     67 H           2.5128   -5.0776    0.0000 H       1  UNL1        0.0660
     68 H           3.1964   -4.5284    0.0000 H       1  UNL1        0.0660
     69 H           9.4397    2.3971    0.0000 H       1  UNL1        0.0621
     70 H           7.0151    3.8094    0.0000 H       1  UNL1        0.0621
     71 H          10.1260   -4.4777    0.0000 H       1  UNL1        0.0618
     72 H           9.8763   -1.6829    0.0000 H       1  UNL1        0.0618
     73 H           5.4980    2.5553    0.0000 H       1  UNL1        0.0660
     74 H           5.2678    3.4013    0.0000 H       1  UNL1        0.0660
     75 H           4.4218    3.1711    0.0000 H       1  UNL1        0.0660
     76 H          10.8079   -3.0082    0.0000 H       1  UNL1        0.0618
     77 H          10.2551    3.7969    0.0000 H       1  UNL1        0.0618
     78 H           7.8305    5.2092    0.0000 H       1  UNL1        0.0618
     79 H           9.4505    5.2030    0.0000 H       1  UNL1        0.0618
@<TRIPOS>BOND
     1     1    11    1
     2     1    15    1
     3    11     2    1
     4     2    18    1
     5    12     3    1
     6     3    30    1
     7     4    25    1
     8     4    28    1
     9     5    16    1
    10     5    34    1
    11    19     6    1
    12     6    35    1
    13     7    24    1
    14     7    36    1
    15     8    21    1
    16     8    57    1
    17     9    27    1
    18     9    41    1
    19    10    23    2
    20    11    12    1
    21    11    14    1
    22    12    13    1
    23    12    16    1
    24    13    15   ar
    25    13    21   ar
    26    14    22    2
    27    14    23    1
    28    15    17   ar
    29    16    24    2
    30    17    19    1
    31    17    25   ar
    32    18    20    1
    33    18    29    1
    34    18    46    1
    35    19    26    1
    36    19    47    1
    37    20    22    1
    38    20    48    1
    39    20    49    1
    40    21    27   ar
    41    22    50    1
    42    23    24    1
    43    25    27   ar
    44    26    28    1
    45    26    51    1
    46    26    52    1
    47    28    31    1
    48    28    53    1
    49    29    32   ar
    50    29    33   ar
    51    30    54    1
    52    30    55    1
    53    30    56    1
    54    31    37   ar
    55    31    38   ar
    56    32    39   ar
    57    32    58    1
    58    33    40   ar
    59    33    59    1
    60    34    60    1
    61    34    61    1
    62    34    62    1
    63    35    63    1
    64    35    64    1
    65    35    65    1
    66    36    66    1
    67    36    67    1
    68    36    68    1
    69    37    43   ar
    70    37    69    1
    71    38    44   ar
    72    38    70    1
    73    39    42   ar
    74    39    71    1
    75    40    42   ar
    76    40    72    1
    77    41    73    1
    78    41    74    1
    79    41    75    1
    80    42    76    1
    81    43    45   ar
    82    43    77    1
    83    44    45   ar
    84    44    78    1
    85    45    79    1
