@<TRIPOS>MOLECULE
IMPHY007522
 49 53 0 0 0
SMALL
GASTEIGER

@<TRIPOS>ATOM
      1 O           5.9705   -2.3328    0.0000 O.3     1  UNL1       -0.3917
      2 O           7.6789    0.6263    0.0000 O.3     1  UNL1       -0.4646
      3 O           6.8129    2.1263    0.0000 O.2     1  UNL1       -0.2453
      4 N           3.3369   -0.6470    0.0000 N.3     1  UNL1       -0.2978
      5 N           4.9022    2.0642    0.0000 N.pl3   1  UNL1       -0.3164
      6 C           4.2620   -0.3464    0.0000 C.3     1  UNL1        0.0310
      7 C           4.2620    0.6263    0.0000 C.3     1  UNL1        0.0529
      8 C           5.1045   -0.8328    0.0000 C.3     1  UNL1        0.0086
      9 C           5.9469   -0.3464    0.0000 C.3     1  UNL1        0.0002
     10 C           3.3369    0.9269    0.0000 C.3     1  UNL1       -0.0238
     11 C           5.1045    1.1127    0.0000 C.2     1  UNL1        0.0306
     12 C           2.7652    0.1399    0.0000 C.3     1  UNL1        0.0004
     13 C           5.3422   -1.3948    0.0000 C.3     1  UNL1       -0.0327
     14 C           4.1101   -1.3948    0.0000 C.3     1  UNL1       -0.0002
     15 C           5.9469    0.6263    0.0000 C.2     1  UNL1        0.0579
     16 C           3.5392    1.2772    0.0000 C.ar    1  UNL1       -0.0130
     17 C           5.1045   -1.8328    0.0000 C.3     1  UNL1        0.0573
     18 C           3.9348    2.1658    0.0000 C.ar    1  UNL1        0.0353
     19 C           2.5718    1.1755    0.0000 C.ar    1  UNL1       -0.0559
     20 C           6.8129    1.1263    0.0000 C.2     1  UNL1        0.3367
     21 C           4.2384   -2.3328    0.0000 C.3     1  UNL1       -0.0386
     22 C           3.3630    2.9528    0.0000 C.ar    1  UNL1       -0.0403
     23 C           2.0000    1.9625    0.0000 C.ar    1  UNL1       -0.0614
     24 C           2.3956    2.8511    0.0000 C.ar    1  UNL1       -0.0600
     25 C           8.5450    1.1263    0.0000 C.3     1  UNL1        0.0820
     26 H           3.7928   -1.0552    0.0000 H       1  UNL1        0.0479
     27 H           4.3683   -1.2578    0.0000 H       1  UNL1        0.0347
     28 H           6.7680   -0.5662    0.0000 H       1  UNL1        0.0356
     29 H           3.5891    1.4933    0.0000 H       1  UNL1        0.0290
     30 H           2.8000    1.2369    0.0000 H       1  UNL1        0.0290
     31 H           2.3044    0.5548    0.0000 H       1  UNL1        0.0427
     32 H           2.3044   -0.2749    0.0000 H       1  UNL1        0.0427
     33 H           5.2347   -2.0054    0.0000 H       1  UNL1        0.0284
     34 H           5.9249   -1.6067    0.0000 H       1  UNL1        0.0284
     35 H           3.5767   -1.7108    0.0000 H       1  UNL1        0.0427
     36 H           4.2739   -1.9928    0.0000 H       1  UNL1        0.0427
     37 H           5.6414   -1.5228    0.0000 H       1  UNL1        0.0594
     38 H           5.2666    2.5658    0.0000 H       1  UNL1        0.1519
     39 H           2.3196    0.6091    0.0000 H       1  UNL1        0.0621
     40 H           3.9284   -1.7959    0.0000 H       1  UNL1        0.0255
     41 H           3.7015   -2.6428    0.0000 H       1  UNL1        0.0255
     42 H           4.5484   -2.8697    0.0000 H       1  UNL1        0.0255
     43 H           3.6152    3.5192    0.0000 H       1  UNL1        0.0636
     44 H           5.9705   -2.9528    0.0000 H       1  UNL1        0.2098
     45 H           1.3834    1.8977    0.0000 H       1  UNL1        0.0618
     46 H           2.0312    3.3527    0.0000 H       1  UNL1        0.0618
     47 H           8.8550    0.5894    0.0000 H       1  UNL1        0.0661
     48 H           9.0819    1.4363    0.0000 H       1  UNL1        0.0661
     49 H           8.2350    1.6632    0.0000 H       1  UNL1        0.0661
@<TRIPOS>BOND
     1    17     1    1
     2     1    44    1
     3     2    20    1
     4     2    25    1
     5     3    20    2
     6     4     6    1
     7     4    12    1
     8     4    14    1
     9     5    11    1
    10     5    18    1
    11     5    38    1
    12     6     7    1
    13     6     8    1
    14     6    26    1
    15     7    10    1
    16     7    11    1
    17     7    16    1
    18     8     9    1
    19     8    17    1
    20     8    27    1
    21     9    13    1
    22     9    15    1
    23     9    28    1
    24    10    12    1
    25    10    29    1
    26    10    30    1
    27    11    15    2
    28    12    31    1
    29    12    32    1
    30    13    14    1
    31    13    33    1
    32    13    34    1
    33    14    35    1
    34    14    36    1
    35    15    20    1
    36    16    18   ar
    37    16    19   ar
    38    17    21    1
    39    17    37    1
    40    18    22   ar
    41    19    23   ar
    42    19    39    1
    43    21    40    1
    44    21    41    1
    45    21    42    1
    46    22    24   ar
    47    22    43    1
    48    23    24   ar
    49    23    45    1
    50    24    46    1
    51    25    47    1
    52    25    48    1
    53    25    49    1
