@<TRIPOS>MOLECULE
IMPHY011040
 13 12 0 0 0
SMALL
GASTEIGER

@<TRIPOS>ATOM
      1 O           5.4641   -0.2500    0.0000 O.3     1  UNL1       -0.3947
      2 C           3.7320   -0.2500    0.0000 C.3     1  UNL1       -0.0117
      3 C           4.5981    0.2500    0.0000 C.3     1  UNL1        0.0476
      4 C           2.8660    0.2500    0.0000 C.2     1  UNL1       -0.0890
      5 C           2.0000   -0.2500    0.0000 C.2     1  UNL1       -0.1026
      6 H           3.3335   -0.7249    0.0000 H       1  UNL1        0.0329
      7 H           4.1306   -0.7249    0.0000 H       1  UNL1        0.0329
      8 H           4.9966    0.7249    0.0000 H       1  UNL1        0.0560
      9 H           4.1996    0.7249    0.0000 H       1  UNL1        0.0560
     10 H           2.8660    0.8700    0.0000 H       1  UNL1        0.0567
     11 H           6.0010    0.0600    0.0000 H       1  UNL1        0.2094
     12 H           1.4631    0.0600    0.0000 H       1  UNL1        0.0532
     13 H           2.0000   -0.8700    0.0000 H       1  UNL1        0.0532
@<TRIPOS>BOND
     1     1     3    1
     2     1    11    1
     3     2     3    1
     4     2     4    1
     5     2     6    1
     6     2     7    1
     7     3     8    1
     8     3     9    1
     9     4     5    2
    10     4    10    1
    11     5    12    1
    12     5    13    1
