@<TRIPOS>MOLECULE
IMPHY000445
 158 167 0 0 0
SMALL
GASTEIGER

@<TRIPOS>ATOM
      1 O          10.8882    2.2730    0.0000 O.3     1  UNL1       -0.3447
      2 O          10.8378    3.3540    0.0000 O.3     1  UNL1       -0.3195
      3 O           9.4651   -5.9711    0.0000 O.3     1  UNL1       -0.3454
      4 O          11.5375    4.9384    0.0000 O.3     1  UNL1       -0.3197
      5 O           7.7331   -5.9711    0.0000 O.3     1  UNL1       -0.3405
      6 O           9.4651   -7.9711    0.0000 O.3     1  UNL1       -0.3378
      7 O          10.5153    6.3366    0.0000 O.3     1  UNL1       -0.3404
      8 O           7.7331   -8.9711    0.0000 O.3     1  UNL1       -0.3864
      9 O           6.0010   -7.9711    0.0000 O.3     1  UNL1       -0.3401
     10 O          13.1521    6.1188    0.0000 O.3     1  UNL1       -0.3841
     11 O          12.9371    8.1072    0.0000 O.3     1  UNL1       -0.3864
     12 O          10.3312   -6.4711    0.0000 O.3     1  UNL1       -0.3431
     13 O          11.1075    8.9152    0.0000 O.3     1  UNL1       -0.3865
     14 O           6.0010   -4.9711    0.0000 O.3     1  UNL1       -0.3924
     15 O           5.1350   -6.4711    0.0000 O.3     1  UNL1       -0.3405
     16 O           9.3855    8.7290    0.0000 O.3     1  UNL1       -0.3924
     17 O          11.1972   -8.9711    0.0000 O.3     1  UNL1       -0.3841
     18 O          12.9292   -7.9711    0.0000 O.3     1  UNL1       -0.3864
     19 O           4.2690   -8.9711    0.0000 O.3     1  UNL1       -0.3841
     20 O          12.9292   -5.9711    0.0000 O.3     1  UNL1       -0.3866
     21 O           2.5369   -7.9711    0.0000 O.3     1  UNL1       -0.3864
     22 O           2.5369   -5.9711    0.0000 O.3     1  UNL1       -0.3865
     23 O           3.4030   -4.4711    0.0000 O.3     1  UNL1       -0.3924
     24 C           9.4944    0.2258    0.0000 C.3     1  UNL1       -0.0233
     25 C          10.3623   -0.2709    0.0000 C.3     1  UNL1       -0.0298
     26 C          10.3662   -1.2709    0.0000 C.3     1  UNL1       -0.0343
     27 C           9.6999    1.1984    0.0000 C.3     1  UNL1       -0.0015
     28 C           9.5021   -1.7742    0.0000 C.3     1  UNL1       -0.0323
     29 C          10.6882    1.3052    0.0000 C.3     1  UNL1        0.0660
     30 C           9.4901   -2.8158    0.0000 C.3     1  UNL1       -0.0260
     31 C          11.0968    0.3990    0.0000 C.3     1  UNL1       -0.0226
     32 C           8.6303   -0.2776    0.0000 C.3     1  UNL1       -0.0467
     33 C           8.6342   -1.2776    0.0000 C.3     1  UNL1       -0.0489
     34 C           9.2976    2.1010    0.0000 C.3     1  UNL1        0.0161
     35 C          10.3901   -3.3401    0.0000 C.3     1  UNL1       -0.0330
     36 C          11.2781   -1.7742    0.0000 C.3     1  UNL1       -0.0494
     37 C          10.0305    2.7638    0.0000 C.3     1  UNL1        0.1762
     38 C          11.2902   -2.8158    0.0000 C.3     1  UNL1       -0.0494
     39 C           8.6264    0.7224    0.0000 C.3     1  UNL1       -0.0590
     40 C           8.5402   -3.3401    0.0000 C.3     1  UNL1       -0.0448
     41 C          10.4027   -4.4250    0.0000 C.3     1  UNL1       -0.0232
     42 C           8.6260   -2.3124    0.0000 C.3     1  UNL1       -0.0590
     43 C           8.5276   -4.4250    0.0000 C.3     1  UNL1       -0.0260
     44 C           8.3192    2.3077    0.0000 C.3     1  UNL1       -0.0572
     45 C           9.1158    3.1678    0.0000 C.3     1  UNL1        0.0022
     46 C           9.4651   -4.9711    0.0000 C.3     1  UNL1        0.0621
     47 C           9.0083    4.1620    0.0000 C.3     1  UNL1       -0.0410
     48 C          10.7303    4.3482    0.0000 C.3     1  UNL1        0.1680
     49 C           9.8155    4.7522    0.0000 C.3     1  UNL1        0.0077
     50 C           9.7080    5.7464    0.0000 C.3     1  UNL1       -0.0578
     51 C           8.5991   -6.4711    0.0000 C.3     1  UNL1        0.1886
     52 C           8.5991   -7.4711    0.0000 C.3     1  UNL1        0.1406
     53 C          11.4300    5.9326    0.0000 C.3     1  UNL1        0.1908
     54 C           7.7331   -7.9711    0.0000 C.3     1  UNL1        0.1148
     55 C           6.8671   -6.4711    0.0000 C.3     1  UNL1        0.1134
     56 C          12.2373    6.5228    0.0000 C.3     1  UNL1        0.1342
     57 C           6.8671   -7.4711    0.0000 C.3     1  UNL1        0.1184
     58 C          12.1298    7.5170    0.0000 C.3     1  UNL1        0.1141
     59 C          10.4078    7.3308    0.0000 C.3     1  UNL1        0.1130
     60 C          11.2150    7.9210    0.0000 C.3     1  UNL1        0.1119
     61 C           6.0010   -5.9711    0.0000 C.3     1  UNL1        0.0730
     62 C          10.3312   -7.4711    0.0000 C.3     1  UNL1        0.1884
     63 C           9.4930    7.7348    0.0000 C.3     1  UNL1        0.0730
     64 C          11.1972   -7.9711    0.0000 C.3     1  UNL1        0.1341
     65 C           5.1350   -7.4711    0.0000 C.3     1  UNL1        0.1884
     66 C          12.0632   -7.4711    0.0000 C.3     1  UNL1        0.1140
     67 C          11.1972   -5.9711    0.0000 C.3     1  UNL1        0.0873
     68 C           4.2690   -7.9711    0.0000 C.3     1  UNL1        0.1341
     69 C          12.0632   -6.4711    0.0000 C.3     1  UNL1        0.1095
     70 C           3.4030   -7.4711    0.0000 C.3     1  UNL1        0.1141
     71 C           4.2690   -5.9711    0.0000 C.3     1  UNL1        0.1130
     72 C           3.4030   -6.4711    0.0000 C.3     1  UNL1        0.1119
     73 C          11.1972   -4.9711    0.0000 C.3     1  UNL1       -0.0361
     74 C           4.2690   -4.9711    0.0000 C.3     1  UNL1        0.0730
     75 H          11.1406   -0.6126    0.0000 H       1  UNL1        0.0310
     76 H          11.0974   -0.8374    0.0000 H       1  UNL1        0.0306
     77 H           8.8546    1.1088    0.0000 H       1  UNL1        0.0335
     78 H          10.2366   -2.2021    0.0000 H       1  UNL1        0.0309
     79 H          11.5330    1.3984    0.0000 H       1  UNL1        0.0600
     80 H          11.4642   -0.1004    0.0000 H       1  UNL1        0.0293
     81 H          11.6321    0.7119    0.0000 H       1  UNL1        0.0293
     82 H           8.4160    0.3042    0.0000 H       1  UNL1        0.0271
     83 H           8.0201   -0.3876    0.0000 H       1  UNL1        0.0271
     84 H           8.0232   -1.1723    0.0000 H       1  UNL1        0.0268
     85 H           8.4244   -1.8610    0.0000 H       1  UNL1        0.0268
     86 H           8.9078    1.6188    0.0000 H       1  UNL1        0.0354
     87 H          11.1295   -3.7594    0.0000 H       1  UNL1        0.0307
     88 H          11.8902   -1.8732    0.0000 H       1  UNL1        0.0268
     89 H          11.4804   -1.1882    0.0000 H       1  UNL1        0.0268
     90 H          11.5060   -3.3970    0.0000 H       1  UNL1        0.0268
     91 H          11.8998   -2.7026    0.0000 H       1  UNL1        0.0268
     92 H           8.9344    1.2605    0.0000 H       1  UNL1        0.0235
     93 H           8.0883    1.0303    0.0000 H       1  UNL1        0.0235
     94 H           8.3185    0.1843    0.0000 H       1  UNL1        0.0235
     95 H           8.3379   -2.7540    0.0000 H       1  UNL1        0.0271
     96 H           7.9281   -3.4391    0.0000 H       1  UNL1        0.0271
     97 H          10.6185   -5.0062    0.0000 H       1  UNL1        0.0293
     98 H          11.0123   -4.3118    0.0000 H       1  UNL1        0.0293
     99 H           8.9380   -1.7767    0.0000 H       1  UNL1        0.0235
    100 H           8.0902   -2.0004    0.0000 H       1  UNL1        0.0235
    101 H           8.3139   -2.8482    0.0000 H       1  UNL1        0.0235
    102 H           7.9180   -4.3118    0.0000 H       1  UNL1        0.0290
    103 H           8.3118   -5.0062    0.0000 H       1  UNL1        0.0290
    104 H           8.4473    2.9143    0.0000 H       1  UNL1        0.0234
    105 H           7.7125    2.4358    0.0000 H       1  UNL1        0.0234
    106 H           8.1910    1.7010    0.0000 H       1  UNL1        0.0234
    107 H           8.4972    3.2092    0.0000 H       1  UNL1        0.0317
    108 H           8.9676    2.5657    0.0000 H       1  UNL1        0.0317
    109 H          10.0027   -5.2801    0.0000 H       1  UNL1        0.0597
    110 H           8.7348    4.7184    0.0000 H       1  UNL1        0.0271
    111 H           8.4128    3.9893    0.0000 H       1  UNL1        0.0271
    112 H          10.6636    4.9646    0.0000 H       1  UNL1        0.0914
    113 H           9.2484    5.0027    0.0000 H       1  UNL1        0.0347
    114 H          10.3244    5.8130    0.0000 H       1  UNL1        0.0234
    115 H           9.6414    6.3628    0.0000 H       1  UNL1        0.0234
    116 H           9.0916    5.6797    0.0000 H       1  UNL1        0.0234
    117 H           8.5991   -5.8511    0.0000 H       1  UNL1        0.0938
    118 H           8.5991   -8.0911    0.0000 H       1  UNL1        0.0675
    119 H          10.9295    5.5666    0.0000 H       1  UNL1        0.0938
    120 H           7.1962   -8.2811    0.0000 H       1  UNL1        0.0648
    121 H           6.8671   -5.8511    0.0000 H       1  UNL1        0.0647
    122 H          12.7378    6.8887    0.0000 H       1  UNL1        0.0671
    123 H           6.3301   -7.1611    0.0000 H       1  UNL1        0.0651
    124 H          12.0631    8.1334    0.0000 H       1  UNL1        0.0648
    125 H           9.9073    6.9649    0.0000 H       1  UNL1        0.0647
    126 H          10.6479    8.1715    0.0000 H       1  UNL1        0.0647
    127 H           5.3905   -5.8634    0.0000 H       1  UNL1        0.0584
    128 H           5.7890   -6.5537    0.0000 H       1  UNL1        0.0584
    129 H           9.7942   -7.1611    0.0000 H       1  UNL1        0.0938
    130 H           7.1962   -9.2811    0.0000 H       1  UNL1        0.2100
    131 H          13.6526    6.4847    0.0000 H       1  UNL1        0.2101
    132 H           8.8744    7.7762    0.0000 H       1  UNL1        0.0584
    133 H           9.3448    7.1328    0.0000 H       1  UNL1        0.0584
    134 H          11.7341   -8.2811    0.0000 H       1  UNL1        0.0671
    135 H           5.1350   -8.0911    0.0000 H       1  UNL1        0.0938
    136 H          12.8704    8.7236    0.0000 H       1  UNL1        0.2100
    137 H          11.6080    9.2811    0.0000 H       1  UNL1        0.2100
    138 H           5.4641   -4.6611    0.0000 H       1  UNL1        0.2095
    139 H          12.6002   -7.1611    0.0000 H       1  UNL1        0.0648
    140 H          10.6603   -5.6611    0.0000 H       1  UNL1        0.0621
    141 H           3.7320   -8.2811    0.0000 H       1  UNL1        0.0671
    142 H          12.0632   -5.8511    0.0000 H       1  UNL1        0.0646
    143 H           8.8184    8.9795    0.0000 H       1  UNL1        0.2095
    144 H          11.7341   -9.2811    0.0000 H       1  UNL1        0.2101
    145 H           2.8660   -7.1611    0.0000 H       1  UNL1        0.0648
    146 H           4.8059   -5.6611    0.0000 H       1  UNL1        0.0647
    147 H           3.4030   -5.8511    0.0000 H       1  UNL1        0.0647
    148 H          11.8172   -4.9711    0.0000 H       1  UNL1        0.0255
    149 H          11.1972   -4.3511    0.0000 H       1  UNL1        0.0255
    150 H          10.5772   -4.9711    0.0000 H       1  UNL1        0.0255
    151 H          13.4662   -7.6611    0.0000 H       1  UNL1        0.2100
    152 H           3.7320   -9.2811    0.0000 H       1  UNL1        0.2101
    153 H          13.4662   -6.2811    0.0000 H       1  UNL1        0.2100
    154 H           4.8796   -5.0788    0.0000 H       1  UNL1        0.0584
    155 H           4.4810   -4.3885    0.0000 H       1  UNL1        0.0584
    156 H           2.0000   -7.6611    0.0000 H       1  UNL1        0.2100
    157 H           2.5369   -5.3511    0.0000 H       1  UNL1        0.2100
    158 H           3.4030   -3.8511    0.0000 H       1  UNL1        0.2095
@<TRIPOS>BOND
     1     1    29    1
     2    37     1    1
     3     2    37    1
     4     2    48    1
     5    46     3    1
     6    51     3    1
     7     4    48    1
     8    53     4    1
     9     5    51    1
    10     5    55    1
    11    52     6    1
    12    62     6    1
    13     7    53    1
    14     7    59    1
    15    54     8    1
    16     8   130    1
    17    57     9    1
    18    65     9    1
    19    56    10    1
    20    10   131    1
    21    58    11    1
    22    11   136    1
    23    12    62    1
    24    12    67    1
    25    60    13    1
    26    13   137    1
    27    14    61    1
    28    14   138    1
    29    15    65    1
    30    15    71    1
    31    16    63    1
    32    16   143    1
    33    64    17    1
    34    17   144    1
    35    66    18    1
    36    18   151    1
    37    68    19    1
    38    19   152    1
    39    69    20    1
    40    20   153    1
    41    70    21    1
    42    21   156    1
    43    72    22    1
    44    22   157    1
    45    23    74    1
    46    23   158    1
    47    24    25    1
    48    24    27    1
    49    24    32    1
    50    24    39    1
    51    25    26    1
    52    25    31    1
    53    25    75    1
    54    26    28    1
    55    26    36    1
    56    26    76    1
    57    27    29    1
    58    27    34    1
    59    27    77    1
    60    28    30    1
    61    28    33    1
    62    28    78    1
    63    29    31    1
    64    29    79    1
    65    30    35    1
    66    30    40    1
    67    30    42    1
    68    31    80    1
    69    31    81    1
    70    32    33    1
    71    32    82    1
    72    32    83    1
    73    33    84    1
    74    33    85    1
    75    34    37    1
    76    34    44    1
    77    34    86    1
    78    35    38    1
    79    35    41    1
    80    35    87    1
    81    36    38    1
    82    36    88    1
    83    36    89    1
    84    37    45    1
    85    38    90    1
    86    38    91    1
    87    39    92    1
    88    39    93    1
    89    39    94    1
    90    40    43    1
    91    40    95    1
    92    40    96    1
    93    41    46    1
    94    41    97    1
    95    41    98    1
    96    42    99    1
    97    42   100    1
    98    42   101    1
    99    43    46    1
   100    43   102    1
   101    43   103    1
   102    44   104    1
   103    44   105    1
   104    44   106    1
   105    45    47    1
   106    45   107    1
   107    45   108    1
   108    46   109    1
   109    47    49    1
   110    47   110    1
   111    47   111    1
   112    48    49    1
   113    48   112    1
   114    49    50    1
   115    49   113    1
   116    50   114    1
   117    50   115    1
   118    50   116    1
   119    51    52    1
   120    51   117    1
   121    52    54    1
   122    52   118    1
   123    53    56    1
   124    53   119    1
   125    54    57    1
   126    54   120    1
   127    55    57    1
   128    55    61    1
   129    55   121    1
   130    56    58    1
   131    56   122    1
   132    57   123    1
   133    58    60    1
   134    58   124    1
   135    59    60    1
   136    59    63    1
   137    59   125    1
   138    60   126    1
   139    61   127    1
   140    61   128    1
   141    62    64    1
   142    62   129    1
   143    63   132    1
   144    63   133    1
   145    64    66    1
   146    64   134    1
   147    65    68    1
   148    65   135    1
   149    66    69    1
   150    66   139    1
   151    67    69    1
   152    67    73    1
   153    67   140    1
   154    68    70    1
   155    68   141    1
   156    69   142    1
   157    70    72    1
   158    70   145    1
   159    71    72    1
   160    71    74    1
   161    71   146    1
   162    72   147    1
   163    73   148    1
   164    73   149    1
   165    73   150    1
   166    74   154    1
   167    74   155    1
