@<TRIPOS>MOLECULE
IMPHY006326
 24 26 0 0 0
SMALL
GASTEIGER

@<TRIPOS>ATOM
      1 O           4.6660    0.8246    0.0000 O.2     1  UNL1       -0.4509
      2 O           4.6660   -2.1754    0.0000 O.2     1  UNL1       -0.2864
      3 O           6.4144    1.8592    0.0000 O.3     1  UNL1       -0.5033
      4 C           5.5321   -0.6754    0.0000 C.ar    1  UNL1        0.0682
      5 C           3.8000   -0.6754    0.0000 C.ar    1  UNL1        0.0646
      6 C           5.5321    0.3246    0.0000 C.ar    1  UNL1        0.1804
      7 C           3.8000    0.3246    0.0000 C.ar    1  UNL1        0.1394
      8 C           4.6660   -1.1754    0.0000 C.ar    1  UNL1        0.2003
      9 C           6.4260    0.8593    0.0000 C.ar    1  UNL1        0.1598
     10 C           6.4260   -1.2100    0.0000 C.ar    1  UNL1       -0.0471
     11 C           2.9061   -1.2100    0.0000 C.ar    1  UNL1       -0.0474
     12 C           2.9061    0.8593    0.0000 C.ar    1  UNL1       -0.0186
     13 C           7.3321    0.3454    0.0000 C.ar    1  UNL1       -0.0165
     14 C           7.3321   -0.6962    0.0000 C.ar    1  UNL1       -0.0574
     15 C           2.0000   -0.6962    0.0000 C.ar    1  UNL1       -0.0609
     16 C           2.0000    0.3454    0.0000 C.ar    1  UNL1       -0.0582
     17 H           6.4188   -1.8300    0.0000 H       1  UNL1        0.0626
     18 H           2.9132   -1.8300    0.0000 H       1  UNL1        0.0626
     19 H           2.9132    1.4792    0.0000 H       1  UNL1        0.0654
     20 H           7.8678    0.6575    0.0000 H       1  UNL1        0.0655
     21 H           7.8678   -1.0083    0.0000 H       1  UNL1        0.0619
     22 H           1.4643   -1.0083    0.0000 H       1  UNL1        0.0618
     23 H           1.4643    0.6575    0.0000 H       1  UNL1        0.0619
     24 H           6.9478    2.1754    0.0000 H       1  UNL1        0.2923
@<TRIPOS>BOND
     1     1     6   ar
     2     1     7   ar
     3     2     8    2
     4     3     9    1
     5     3    24    1
     6     4     6   ar
     7     4     8   ar
     8     4    10   ar
     9     5     7   ar
    10     5     8   ar
    11     5    11   ar
    12     6     9   ar
    13     7    12   ar
    14     9    13   ar
    15    10    14   ar
    16    10    17    1
    17    11    15   ar
    18    11    18    1
    19    12    16   ar
    20    12    19    1
    21    13    14   ar
    22    13    20    1
    23    14    21    1
    24    15    16   ar
    25    15    22    1
    26    16    23    1
