@<TRIPOS>MOLECULE
IMPHY003168
 72 75 0 0 0
SMALL
GASTEIGER

@<TRIPOS>ATOM
      1 O           7.7331    2.4050    0.0000 O.3     1  UNL1       -0.3829
      2 O           9.4893   -0.4861    0.0000 O.3     1  UNL1       -0.3846
      3 O           6.0010    0.4050    0.0000 O.2     1  UNL1       -0.4699
      4 O          10.2629    0.9050    0.0000 O.3     1  UNL1       -0.4553
      5 O           6.8671   -1.0950    0.0000 O.3     1  UNL1       -0.3094
      6 O           5.1350   -1.0950    0.0000 O.3     1  UNL1       -0.3404
      7 O           6.0010    3.4050    0.0000 O.3     1  UNL1       -0.4645
      8 O           6.8671   -3.0950    0.0000 O.3     1  UNL1       -0.3841
      9 O           7.7331    3.4050    0.0000 O.2     1  UNL1       -0.2451
     10 O           5.1350   -4.0950    0.0000 O.3     1  UNL1       -0.3864
     11 O           3.4030   -3.0950    0.0000 O.3     1  UNL1       -0.3865
     12 O          10.2629    2.6370    0.0000 O.2     1  UNL1       -0.2456
     13 O           2.5369   -1.5950    0.0000 O.3     1  UNL1       -0.3924
     14 O          16.2629    2.6370    0.0000 O.3     1  UNL1       -0.5068
     15 C           7.7331    0.4050    0.0000 C.3     1  UNL1        0.0868
     16 C           7.7331    1.4050    0.0000 C.3     1  UNL1        0.1152
     17 C           8.6793    0.1003    0.0000 C.3     1  UNL1        0.1115
     18 C           9.2629    0.9050    0.0000 C.3     1  UNL1        0.1351
     19 C           8.6793    1.7097    0.0000 C.3     1  UNL1        0.0211
     20 C           6.8671   -0.0950    0.0000 C.3     1  UNL1        0.2120
     21 C           6.8671    1.9050    0.0000 C.2     1  UNL1        0.1026
     22 C           8.3719   -0.8513    0.0000 C.3     1  UNL1       -0.0320
     23 C           6.0010    1.4050    0.0000 C.2     1  UNL1        0.1006
     24 C           6.0010   -1.5950    0.0000 C.3     1  UNL1        0.1918
     25 C           6.8671    2.9050    0.0000 C.2     1  UNL1        0.3406
     26 C           6.0010   -2.5950    0.0000 C.3     1  UNL1        0.1342
     27 C           5.1350   -3.0950    0.0000 C.3     1  UNL1        0.1141
     28 C           4.2690   -1.5950    0.0000 C.3     1  UNL1        0.1130
     29 C           4.2690   -2.5950    0.0000 C.3     1  UNL1        0.1119
     30 C          10.7629    1.7710    0.0000 C.2     1  UNL1        0.3323
     31 C           3.4030   -1.0950    0.0000 C.3     1  UNL1        0.0730
     32 C          11.7629    1.7710    0.0000 C.2     1  UNL1        0.0231
     33 C           6.0010    4.4050    0.0000 C.3     1  UNL1        0.0820
     34 C          12.2629    2.6370    0.0000 C.2     1  UNL1       -0.0478
     35 C          13.2629    2.6370    0.0000 C.ar    1  UNL1       -0.0246
     36 C          13.7629    1.7710    0.0000 C.ar    1  UNL1       -0.0511
     37 C          13.7629    3.5031    0.0000 C.ar    1  UNL1       -0.0511
     38 C          14.7629    1.7710    0.0000 C.ar    1  UNL1       -0.0196
     39 C          14.7629    3.5031    0.0000 C.ar    1  UNL1       -0.0196
     40 C          15.2629    2.6370    0.0000 C.ar    1  UNL1        0.1169
     41 H           7.8230   -0.4402    0.0000 H       1  UNL1        0.0422
     42 H           9.5446    1.4573    0.0000 H       1  UNL1        0.0764
     43 H           9.2167    2.0190    0.0000 H       1  UNL1        0.0333
     44 H           8.4283    2.2766    0.0000 H       1  UNL1        0.0333
     45 H           7.4040   -0.4050    0.0000 H       1  UNL1        0.1061
     46 H           7.7820   -0.6608    0.0000 H       1  UNL1        0.0259
     47 H           8.1814   -1.4413    0.0000 H       1  UNL1        0.0259
     48 H           8.9619   -1.0419    0.0000 H       1  UNL1        0.0259
     49 H           8.2700    2.7150    0.0000 H       1  UNL1        0.2106
     50 H           9.4256   -1.1028    0.0000 H       1  UNL1        0.2103
     51 H           5.4641    1.7150    0.0000 H       1  UNL1        0.1030
     52 H           6.0010   -0.9750    0.0000 H       1  UNL1        0.0939
     53 H           6.0010   -3.2150    0.0000 H       1  UNL1        0.0671
     54 H           4.5981   -3.4050    0.0000 H       1  UNL1        0.0648
     55 H           4.2690   -0.9750    0.0000 H       1  UNL1        0.0647
     56 H           3.7320   -2.2850    0.0000 H       1  UNL1        0.0647
     57 H           3.8015   -0.6201    0.0000 H       1  UNL1        0.0584
     58 H           3.0044   -0.6201    0.0000 H       1  UNL1        0.0584
     59 H           6.8671   -3.7150    0.0000 H       1  UNL1        0.2101
     60 H          12.0729    1.2341    0.0000 H       1  UNL1        0.0689
     61 H           4.5981   -4.4050    0.0000 H       1  UNL1        0.2100
     62 H           3.4030   -3.7150    0.0000 H       1  UNL1        0.2100
     63 H           6.6210    4.4050    0.0000 H       1  UNL1        0.0661
     64 H           6.0010    5.0250    0.0000 H       1  UNL1        0.0661
     65 H           5.3810    4.4050    0.0000 H       1  UNL1        0.0661
     66 H          11.9529    3.1740    0.0000 H       1  UNL1        0.0626
     67 H           2.0000   -1.2850    0.0000 H       1  UNL1        0.2095
     68 H          13.4529    1.2341    0.0000 H       1  UNL1        0.0625
     69 H          13.4529    4.0400    0.0000 H       1  UNL1        0.0625
     70 H          15.0729    1.2341    0.0000 H       1  UNL1        0.0654
     71 H          15.0729    4.0400    0.0000 H       1  UNL1        0.0654
     72 H          16.5729    3.1740    0.0000 H       1  UNL1        0.2921
@<TRIPOS>BOND
     1    16     1    1
     2     1    49    1
     3    17     2    1
     4     2    50    1
     5     3    20    1
     6     3    23    1
     7    18     4    1
     8     4    30    1
     9    20     5    1
    10    24     5    1
    11     6    24    1
    12     6    28    1
    13     7    25    1
    14     7    33    1
    15    26     8    1
    16     8    59    1
    17     9    25    2
    18    27    10    1
    19    10    61    1
    20    29    11    1
    21    11    62    1
    22    12    30    2
    23    13    31    1
    24    13    67    1
    25    14    40    1
    26    14    72    1
    27    15    16    1
    28    15    17    1
    29    15    20    1
    30    15    41    1
    31    16    19    1
    32    16    21    1
    33    17    18    1
    34    17    22    1
    35    18    19    1
    36    18    42    1
    37    19    43    1
    38    19    44    1
    39    20    45    1
    40    21    23    2
    41    21    25    1
    42    22    46    1
    43    22    47    1
    44    22    48    1
    45    23    51    1
    46    24    26    1
    47    24    52    1
    48    26    27    1
    49    26    53    1
    50    27    29    1
    51    27    54    1
    52    28    29    1
    53    28    31    1
    54    28    55    1
    55    29    56    1
    56    30    32    1
    57    31    57    1
    58    31    58    1
    59    32    34    2
    60    32    60    1
    61    33    63    1
    62    33    64    1
    63    33    65    1
    64    34    35    1
    65    34    66    1
    66    35    36   ar
    67    35    37   ar
    68    36    38   ar
    69    36    68    1
    70    37    39   ar
    71    37    69    1
    72    38    40   ar
    73    38    70    1
    74    39    40   ar
    75    39    71    1
