@<TRIPOS>MOLECULE
IMPHY008183
 46 48 0 0 0
SMALL
GASTEIGER

@<TRIPOS>ATOM
      1 O           4.5741   -1.5078    0.0000 O.3     1  UNL1       -0.3661
      2 O           4.9088    1.6909    0.0000 O.3     1  UNL1       -0.3884
      3 O           6.2074    1.2784    0.0000 O.3     1  UNL1       -0.3888
      4 O           2.9494    1.6708    0.0000 O.3     1  UNL1       -0.3910
      5 O           3.8342    1.8573    0.0000 O.3     1  UNL1       -0.3942
      6 C           3.8001   -0.8746    0.0000 C.3     1  UNL1        0.0857
      7 C           3.8126    0.1254    0.0000 C.3     1  UNL1        0.0771
      8 C           5.9968   -0.4019    0.0000 C.3     1  UNL1        0.0187
      9 C           4.8215   -0.2804    0.0000 C.3     1  UNL1       -0.0148
     10 C           2.8996   -1.3980    0.0000 C.3     1  UNL1       -0.0138
     11 C           4.6021    0.7391    0.0000 C.3     1  UNL1        0.0941
     12 C           5.5518   -1.2974    0.0000 C.3     1  UNL1        0.0700
     13 C           5.5742    0.5044    0.0000 C.3     1  UNL1        0.0873
     14 C           2.9254    0.6711    0.0000 C.3     1  UNL1        0.0681
     15 C           2.0000   -0.8729    0.0000 C.3     1  UNL1       -0.0455
     16 C           2.0130    0.1686    0.0000 C.3     1  UNL1       -0.0257
     17 C           3.3234    0.9976    0.0000 C.3     1  UNL1        0.0573
     18 C           2.8987   -2.3980    0.0000 C.3     1  UNL1       -0.0598
     19 C           5.5842   -2.2969    0.0000 C.3     1  UNL1       -0.0357
     20 C           6.5123   -1.5754    0.0000 C.3     1  UNL1       -0.0357
     21 H           6.8278   -0.2231    0.0000 H       1  UNL1        0.0355
     22 H           5.0724    0.2866    0.0000 H       1  UNL1        0.0298
     23 H           4.3596    0.1332    0.0000 H       1  UNL1        0.0298
     24 H           3.4368   -1.7075    0.0000 H       1  UNL1        0.0326
     25 H           4.0943    1.0947    0.0000 H       1  UNL1        0.0627
     26 H           6.1894    0.4273    0.0000 H       1  UNL1        0.0623
     27 H           2.3954    0.9929    0.0000 H       1  UNL1        0.0601
     28 H           1.3905   -0.7592    0.0000 H       1  UNL1        0.0270
     29 H           1.7837   -1.4540    0.0000 H       1  UNL1        0.0270
     30 H           1.8112    0.7549    0.0000 H       1  UNL1        0.0290
     31 H           1.4008    0.0701    0.0000 H       1  UNL1        0.0290
     32 H           2.8535    1.4020    0.0000 H       1  UNL1        0.0565
     33 H           2.8436    0.6050    0.0000 H       1  UNL1        0.0565
     34 H           2.2787   -2.3975    0.0000 H       1  UNL1        0.0233
     35 H           2.8981   -3.0180    0.0000 H       1  UNL1        0.0233
     36 H           3.5187   -2.3986    0.0000 H       1  UNL1        0.0233
     37 H           4.9645   -2.3170    0.0000 H       1  UNL1        0.0257
     38 H           5.6043   -2.9166    0.0000 H       1  UNL1        0.0257
     39 H           6.2038   -2.2768    0.0000 H       1  UNL1        0.0257
     40 H           6.3399   -2.1710    0.0000 H       1  UNL1        0.0257
     41 H           7.1079   -1.7478    0.0000 H       1  UNL1        0.0257
     42 H           6.6847   -0.9799    0.0000 H       1  UNL1        0.0257
     43 H           4.4928    2.1506    0.0000 H       1  UNL1        0.2099
     44 H           6.8193    1.1784    0.0000 H       1  UNL1        0.2099
     45 H           2.4201    1.9936    0.0000 H       1  UNL1        0.2098
     46 H           3.5309    2.3980    0.0000 H       1  UNL1        0.2094
@<TRIPOS>BOND
     1     6     1    1
     2     1    12    1
     3    11     2    1
     4     2    43    1
     5    13     3    1
     6     3    44    1
     7    14     4    1
     8     4    45    1
     9     5    17    1
    10     5    46    1
    11     6     7    1
    12     6     9    1
    13     6    10    1
    14     7    11    1
    15     7    14    1
    16     7    17    1
    17     8     9    1
    18     8    12    1
    19     8    13    1
    20     8    21    1
    21     9    22    1
    22     9    23    1
    23    10    15    1
    24    10    18    1
    25    10    24    1
    26    11    13    1
    27    11    25    1
    28    12    19    1
    29    12    20    1
    30    13    26    1
    31    14    16    1
    32    14    27    1
    33    15    16    1
    34    15    28    1
    35    15    29    1
    36    16    30    1
    37    16    31    1
    38    17    32    1
    39    17    33    1
    40    18    34    1
    41    18    35    1
    42    18    36    1
    43    19    37    1
    44    19    38    1
    45    19    39    1
    46    20    40    1
    47    20    41    1
    48    20    42    1
