@<TRIPOS>MOLECULE
IMPHY006522
 93 98 0 0 0
SMALL
GASTEIGER

@<TRIPOS>ATOM
      1 O          11.4875    1.1562    0.0000 O.3     1  UNL1       -0.3549
      2 O          10.0776   -0.6111    0.0000 O.3     1  UNL1       -0.4760
      3 O          14.0753   -0.3790    0.0000 O.2     1  UNL1       -0.2935
      4 O          10.0776   -3.3735    0.0000 O.2     1  UNL1       -0.2866
      5 O           6.9278   -0.4892    0.0000 O.3     1  UNL1       -0.4850
      6 O           8.5513   -3.3735    0.0000 O.3     1  UNL1       -0.5055
      7 O           6.9693   -3.4945    0.0000 O.3     1  UNL1       -0.3868
      8 O           9.7537    3.2348    0.0000 O.3     1  UNL1       -0.4774
      9 O          11.4069    3.7516    0.0000 O.2     1  UNL1       -0.2455
     10 C          10.8407   -1.0517    0.0000 C.3     1  UNL1        0.1800
     11 C          11.6038   -0.6111    0.0000 C.3     1  UNL1        0.0360
     12 C          11.6245    0.1526    0.0000 C.3     1  UNL1        0.1753
     13 C          12.2512    0.4072    0.0000 C.3     1  UNL1        0.0723
     14 C          12.3670   -1.0517    0.0000 C.3     1  UNL1       -0.0304
     15 C          12.3670   -1.9329    0.0000 C.3     1  UNL1        0.0399
     16 C          10.8407   -1.9329    0.0000 C.2     1  UNL1        0.0435
     17 C          13.1128   -0.6503    0.0000 C.2     1  UNL1        0.1762
     18 C          11.6038   -2.3735    0.0000 C.2     1  UNL1       -0.0630
     19 C          10.6488    0.3714    0.0000 C.3     1  UNL1        0.0064
     20 C          12.9878    1.0835    0.0000 C.3     1  UNL1       -0.0356
     21 C          13.2376    0.2431    0.0000 C.3     1  UNL1       -0.0356
     22 C          10.0776   -2.3735    0.0000 C.2     1  UNL1        0.1999
     23 C           9.3144   -1.0517    0.0000 C.ar    1  UNL1        0.1432
     24 C           9.3144   -1.9329    0.0000 C.ar    1  UNL1        0.1058
     25 C          10.3504    1.3259    0.0000 C.2     1  UNL1       -0.0710
     26 C           8.5513   -0.6111    0.0000 C.ar    1  UNL1        0.0409
     27 C           8.5513   -2.3735    0.0000 C.ar    1  UNL1        0.1403
     28 C           7.7882   -1.0517    0.0000 C.ar    1  UNL1        0.1374
     29 C           7.7882   -1.9329    0.0000 C.ar    1  UNL1        0.0651
     30 C          11.0278    2.0615    0.0000 C.2     1  UNL1        0.0295
     31 C           8.5513    0.3889    0.0000 C.3     1  UNL1       -0.0023
     32 C           6.9278   -2.4954    0.0000 C.3     1  UNL1        0.0907
     33 C           6.0236   -0.9783    0.0000 C.3     1  UNL1        0.1108
     34 C           6.0236   -2.0063    0.0000 C.3     1  UNL1        0.0173
     35 C          12.0036    1.8427    0.0000 C.3     1  UNL1       -0.0332
     36 C          10.7295    3.0160    0.0000 C.2     1  UNL1        0.3322
     37 C           5.0237   -0.9645    0.0000 C.3     1  UNL1       -0.0096
     38 C           7.6852    0.8889    0.0000 C.2     1  UNL1       -0.0807
     39 C           5.5357   -0.1054    0.0000 C.3     1  UNL1       -0.0248
     40 C           4.5118   -1.8235    0.0000 C.3     1  UNL1       -0.0309
     41 C           7.6852    1.8889    0.0000 C.2     1  UNL1       -0.0793
     42 C           3.5118   -1.8096    0.0000 C.2     1  UNL1       -0.0852
     43 C           6.8192    2.3889    0.0000 C.3     1  UNL1       -0.0440
     44 C           8.5513    2.3889    0.0000 C.3     1  UNL1       -0.0440
     45 C           2.9999   -2.6686    0.0000 C.2     1  UNL1       -0.0796
     46 C           2.0000   -2.6548    0.0000 C.3     1  UNL1       -0.0440
     47 C           3.4879   -3.5415    0.0000 C.3     1  UNL1       -0.0440
     48 H          12.4294   -0.4087    0.0000 H       1  UNL1        0.0372
     49 H          12.9776   -1.1594    0.0000 H       1  UNL1        0.0280
     50 H          12.5790   -0.4691    0.0000 H       1  UNL1        0.0280
     51 H          12.9671   -2.5349    0.0000 H       1  UNL1        0.0421
     52 H          11.6038   -2.9935    0.0000 H       1  UNL1        0.0584
     53 H          10.0339    0.2920    0.0000 H       1  UNL1        0.0341
     54 H          10.6202   -0.2479    0.0000 H       1  UNL1        0.0341
     55 H          13.1359   -0.3685    0.0000 H       1  UNL1        0.0257
     56 H          13.8492    0.1413    0.0000 H       1  UNL1        0.0257
     57 H          13.3394    0.8547    0.0000 H       1  UNL1        0.0257
     58 H          13.4071    0.6268    0.0000 H       1  UNL1        0.0257
     59 H          13.4445    1.5028    0.0000 H       1  UNL1        0.0257
     60 H          12.5685    1.5402    0.0000 H       1  UNL1        0.0257
     61 H           9.7454    1.4616    0.0000 H       1  UNL1        0.0578
     62 H           9.1619    0.2812    0.0000 H       1  UNL1        0.0358
     63 H           8.7633    0.9715    0.0000 H       1  UNL1        0.0358
     64 H           6.2068   -2.9456    0.0000 H       1  UNL1        0.0647
     65 H           5.4121   -1.9042    0.0000 H       1  UNL1        0.0332
     66 H           5.8224   -2.5927    0.0000 H       1  UNL1        0.0332
     67 H          11.8679    1.2377    0.0000 H       1  UNL1        0.0280
     68 H          12.6086    1.7070    0.0000 H       1  UNL1        0.0280
     69 H          12.1393    2.4476    0.0000 H       1  UNL1        0.0280
     70 H           8.0144   -3.6835    0.0000 H       1  UNL1        0.2922
     71 H           5.1398   -0.3554    0.0000 H       1  UNL1        0.0306
     72 H           4.4441   -0.7444    0.0000 H       1  UNL1        0.0306
     73 H           7.1483    0.5789    0.0000 H       1  UNL1        0.0575
     74 H           6.0768    0.1971    0.0000 H       1  UNL1        0.0268
     75 H           5.2331    0.4357    0.0000 H       1  UNL1        0.0268
     76 H           4.9945   -0.4080    0.0000 H       1  UNL1        0.0268
     77 H           6.4457   -3.8266    0.0000 H       1  UNL1        0.2102
     78 H           4.3956   -2.4325    0.0000 H       1  UNL1        0.0309
     79 H           5.0914   -2.0436    0.0000 H       1  UNL1        0.0309
     80 H           9.5687    3.8266    0.0000 H       1  UNL1        0.2954
     81 H           3.2093   -1.2684    0.0000 H       1  UNL1        0.0571
     82 H           7.1292    2.9258    0.0000 H       1  UNL1        0.0274
     83 H           6.2823    2.6989    0.0000 H       1  UNL1        0.0274
     84 H           6.5092    1.8520    0.0000 H       1  UNL1        0.0274
     85 H           8.8613    1.8520    0.0000 H       1  UNL1        0.0274
     86 H           9.0882    2.6989    0.0000 H       1  UNL1        0.0274
     87 H           8.2413    2.9258    0.0000 H       1  UNL1        0.0274
     88 H           2.9467   -3.8440    0.0000 H       1  UNL1        0.0274
     89 H           3.7904   -4.0827    0.0000 H       1  UNL1        0.0274
     90 H           4.0290   -3.2390    0.0000 H       1  UNL1        0.0274
     91 H           2.0086   -2.0348    0.0000 H       1  UNL1        0.0274
     92 H           1.3801   -2.6462    0.0000 H       1  UNL1        0.0274
     93 H           1.9914   -3.2747    0.0000 H       1  UNL1        0.0274
@<TRIPOS>BOND
     1     1    12    1
     2     1    13    1
     3     2    10    1
     4     2    23    1
     5     3    17    2
     6     4    22    2
     7     5    28    1
     8     5    33    1
     9     6    27    1
    10     6    70    1
    11     7    32    1
    12     7    77    1
    13     8    36    1
    14     8    80    1
    15     9    36    2
    16    10    11    1
    17    10    12    1
    18    10    16    1
    19    11    13    1
    20    11    14    1
    21    11    48    1
    22    12    17    1
    23    12    19    1
    24    13    20    1
    25    13    21    1
    26    14    15    1
    27    14    49    1
    28    14    50    1
    29    15    17    1
    30    15    18    1
    31    15    51    1
    32    16    18    2
    33    16    22    1
    34    18    52    1
    35    19    25    1
    36    19    53    1
    37    19    54    1
    38    20    58    1
    39    20    59    1
    40    20    60    1
    41    21    55    1
    42    21    56    1
    43    21    57    1
    44    22    24    1
    45    23    24   ar
    46    23    26   ar
    47    24    27   ar
    48    25    30    2
    49    25    61    1
    50    26    28   ar
    51    26    31    1
    52    27    29   ar
    53    28    29   ar
    54    29    32    1
    55    30    35    1
    56    30    36    1
    57    31    38    1
    58    31    62    1
    59    31    63    1
    60    32    34    1
    61    32    64    1
    62    33    34    1
    63    33    37    1
    64    33    39    1
    65    34    65    1
    66    34    66    1
    67    35    67    1
    68    35    68    1
    69    35    69    1
    70    37    40    1
    71    37    71    1
    72    37    72    1
    73    38    41    2
    74    38    73    1
    75    39    74    1
    76    39    75    1
    77    39    76    1
    78    40    42    1
    79    40    78    1
    80    40    79    1
    81    41    43    1
    82    41    44    1
    83    42    45    2
    84    42    81    1
    85    43    82    1
    86    43    83    1
    87    43    84    1
    88    44    85    1
    89    44    86    1
    90    44    87    1
    91    45    46    1
    92    45    47    1
    93    46    91    1
    94    46    92    1
    95    46    93    1
    96    47    88    1
    97    47    89    1
    98    47    90    1
