@<TRIPOS>MOLECULE
IMPHY014304
 34 36 0 0 0
SMALL
GASTEIGER

@<TRIPOS>ATOM
      1 O           8.1465    1.8592    0.0000 O.3     1  UNL1       -0.5056
      2 O           6.3981    1.8246    0.0000 O.2     1  UNL1       -0.2864
      3 O           6.3981   -2.1754    0.0000 O.2     1  UNL1       -0.2866
      4 O           4.6497    1.8592    0.0000 O.3     1  UNL1       -0.5059
      5 O           9.9282   -1.1995    0.0000 O.3     1  UNL1       -0.5064
      6 O           2.8680   -1.1995    0.0000 O.3     1  UNL1       -0.4950
      7 C           7.2641    0.3246    0.0000 C.ar    1  UNL1        0.0750
      8 C           7.2641   -0.6754    0.0000 C.ar    1  UNL1        0.0401
      9 C           5.5320    0.3246    0.0000 C.ar    1  UNL1        0.0748
     10 C           5.5320   -0.6754    0.0000 C.ar    1  UNL1        0.0401
     11 C           6.3981    0.8246    0.0000 C.2     1  UNL1        0.2015
     12 C           6.3981   -1.1754    0.0000 C.2     1  UNL1        0.1950
     13 C           8.1580    0.8593    0.0000 C.ar    1  UNL1        0.1347
     14 C           9.0641    0.3454    0.0000 C.ar    1  UNL1        0.0330
     15 C           8.1580   -1.2100    0.0000 C.ar    1  UNL1       -0.0082
     16 C           4.6381    0.8593    0.0000 C.ar    1  UNL1        0.1318
     17 C           9.0641   -0.6962    0.0000 C.ar    1  UNL1        0.1239
     18 C           4.6381   -1.2100    0.0000 C.ar    1  UNL1       -0.0082
     19 C           3.7320   -0.6962    0.0000 C.ar    1  UNL1        0.1243
     20 C           3.7320    0.3454    0.0000 C.ar    1  UNL1        0.0223
     21 C           9.9282    0.8488    0.0000 C.3     1  UNL1       -0.0327
     22 C           2.0000   -0.7029    0.0000 C.3     1  UNL1        0.0788
     23 H           8.1509   -1.8300    0.0000 H       1  UNL1        0.0661
     24 H           4.6453   -1.8300    0.0000 H       1  UNL1        0.0661
     25 H           3.1963    0.6575    0.0000 H       1  UNL1        0.0691
     26 H          10.2403    0.3130    0.0000 H       1  UNL1        0.0280
     27 H          10.4639    1.1608    0.0000 H       1  UNL1        0.0280
     28 H           9.6161    1.3845    0.0000 H       1  UNL1        0.0280
     29 H           8.6798    2.1754    0.0000 H       1  UNL1        0.2922
     30 H           4.1164    2.1754    0.0000 H       1  UNL1        0.2922
     31 H           9.9258   -1.8195    0.0000 H       1  UNL1        0.2921
     32 H           2.3079   -0.1648    0.0000 H       1  UNL1        0.0660
     33 H           1.4619   -0.3950    0.0000 H       1  UNL1        0.0660
     34 H           1.6921   -1.2410    0.0000 H       1  UNL1        0.0660
@<TRIPOS>BOND
     1     1    13    1
     2     1    29    1
     3     2    11    2
     4     3    12    2
     5     4    16    1
     6     4    30    1
     7     5    17    1
     8     5    31    1
     9     6    19    1
    10     6    22    1
    11     7     8   ar
    12     7    11    1
    13     7    13   ar
    14     8    12    1
    15     8    15   ar
    16     9    10   ar
    17     9    11    1
    18     9    16   ar
    19    10    12    1
    20    10    18   ar
    21    13    14   ar
    22    14    17   ar
    23    14    21    1
    24    15    17   ar
    25    15    23    1
    26    16    20   ar
    27    18    19   ar
    28    18    24    1
    29    19    20   ar
    30    20    25    1
    31    21    26    1
    32    21    27    1
    33    21    28    1
    34    22    32    1
    35    22    33    1
    36    22    34    1
