@<TRIPOS>MOLECULE
IMPHY008168
 32 31 0 0 0
SMALL
GASTEIGER

@<TRIPOS>ATOM
      1 O           8.9282    0.5670    0.0000 O.3     1  UNL1       -0.4806
      2 O           8.0622   -0.9330    0.0000 O.2     1  UNL1       -0.2510
      3 C           2.8660    0.0670    0.0000 C.3     1  UNL1       -0.0377
      4 C           3.7320    0.5670    0.0000 C.3     1  UNL1       -0.0481
      5 C           4.5981    0.0670    0.0000 C.3     1  UNL1       -0.0526
      6 C           5.4641    0.5670    0.0000 C.3     1  UNL1       -0.0525
      7 C           2.0000   -0.4330    0.0000 C.3     1  UNL1       -0.0601
      8 C           2.3660    0.9330    0.0000 C.3     1  UNL1       -0.0601
      9 C           3.3660   -0.7990    0.0000 C.3     1  UNL1       -0.0601
     10 C           6.3301    0.0670    0.0000 C.3     1  UNL1       -0.0430
     11 C           7.1962    0.5670    0.0000 C.3     1  UNL1        0.0448
     12 C           8.0622    0.0670    0.0000 C.2     1  UNL1        0.3047
     13 H           4.1306    1.0419    0.0000 H       1  UNL1        0.0270
     14 H           3.3335    1.0419    0.0000 H       1  UNL1        0.0270
     15 H           4.1996   -0.4080    0.0000 H       1  UNL1        0.0265
     16 H           4.9966   -0.4080    0.0000 H       1  UNL1        0.0265
     17 H           5.8626    1.0419    0.0000 H       1  UNL1        0.0265
     18 H           5.0656    1.0419    0.0000 H       1  UNL1        0.0265
     19 H           1.6900    0.1039    0.0000 H       1  UNL1        0.0235
     20 H           1.4631   -0.7430    0.0000 H       1  UNL1        0.0235
     21 H           2.3100   -0.9699    0.0000 H       1  UNL1        0.0235
     22 H           2.9030    1.2430    0.0000 H       1  UNL1        0.0235
     23 H           2.0560    1.4700    0.0000 H       1  UNL1        0.0235
     24 H           1.8291    0.6230    0.0000 H       1  UNL1        0.0235
     25 H           2.8291   -1.1090    0.0000 H       1  UNL1        0.0235
     26 H           3.6760   -1.3360    0.0000 H       1  UNL1        0.0235
     27 H           3.9030   -0.4890    0.0000 H       1  UNL1        0.0235
     28 H           5.9316   -0.4080    0.0000 H       1  UNL1        0.0270
     29 H           6.7287   -0.4080    0.0000 H       1  UNL1        0.0270
     30 H           7.5947    1.0419    0.0000 H       1  UNL1        0.0377
     31 H           6.7976    1.0419    0.0000 H       1  UNL1        0.0377
     32 H           9.4651    0.2570    0.0000 H       1  UNL1        0.2951
@<TRIPOS>BOND
     1     1    12    1
     2     1    32    1
     3     2    12    2
     4     3     4    1
     5     3     7    1
     6     3     8    1
     7     3     9    1
     8     4     5    1
     9     4    13    1
    10     4    14    1
    11     5     6    1
    12     5    15    1
    13     5    16    1
    14     6    10    1
    15     6    17    1
    16     6    18    1
    17     7    19    1
    18     7    20    1
    19     7    21    1
    20     8    22    1
    21     8    23    1
    22     8    24    1
    23     9    25    1
    24     9    26    1
    25     9    27    1
    26    10    11    1
    27    10    28    1
    28    10    29    1
    29    11    12    1
    30    11    30    1
    31    11    31    1
