@<TRIPOS>MOLECULE
IMPHY008106
 76 80 0 0 0
SMALL
GASTEIGER

@<TRIPOS>ATOM
      1 O           6.0010   -1.3450    0.0000 O.3     1  UNL1       -0.3366
      2 O           6.8671    1.1550    0.0000 O.3     1  UNL1       -0.3301
      3 O           4.2690   -1.3450    0.0000 O.3     1  UNL1       -0.3431
      4 O           4.2690   -0.3450    0.0000 O.3     1  UNL1       -0.3863
      5 O           7.7331   -0.3450    0.0000 O.3     1  UNL1       -0.4599
      6 O           4.2690    1.6550    0.0000 O.3     1  UNL1       -0.3864
      7 O           6.0010   -3.3450    0.0000 O.3     1  UNL1       -0.3841
      8 O           4.2690   -4.3450    0.0000 O.3     1  UNL1       -0.3864
      9 O           2.5369   -3.3450    0.0000 O.3     1  UNL1       -0.3866
     10 O           5.1350    3.1550    0.0000 O.3     1  UNL1       -0.4621
     11 O          11.2351   -0.3824    0.0000 O.2     1  UNL1       -0.4544
     12 O           6.0010    4.6550    0.0000 O.2     1  UNL1       -0.2512
     13 O           9.5266    2.7069    0.0000 O.3     1  UNL1       -0.5065
     14 O           8.6199   -1.8522    0.0000 O.2     1  UNL1       -0.2869
     15 O          14.6643   -3.4222    0.0000 O.3     1  UNL1       -0.5068
     16 C           6.0010   -0.3450    0.0000 C.3     1  UNL1        0.1519
     17 C           5.1350    0.1550    0.0000 C.3     1  UNL1        0.1156
     18 C           5.1350    1.1550    0.0000 C.3     1  UNL1        0.1130
     19 C           5.1350   -1.8450    0.0000 C.3     1  UNL1        0.1885
     20 C           6.8671    0.1550    0.0000 C.3     1  UNL1        0.2312
     21 C           6.0010    1.6550    0.0000 C.3     1  UNL1        0.1250
     22 C           5.1350   -2.8450    0.0000 C.3     1  UNL1        0.1341
     23 C           4.2690   -3.3450    0.0000 C.3     1  UNL1        0.1140
     24 C           3.4030   -2.8450    0.0000 C.3     1  UNL1        0.1095
     25 C           3.4030   -1.8450    0.0000 C.3     1  UNL1        0.0873
     26 C           6.0010    2.6550    0.0000 C.3     1  UNL1        0.1212
     27 C           2.5369   -1.3450    0.0000 C.3     1  UNL1       -0.0361
     28 C           8.5991    0.1550    0.0000 C.ar    1  UNL1        0.1418
     29 C           9.5032   -0.3623    0.0000 C.ar    1  UNL1        0.1058
     30 C           8.6031    1.1966    0.0000 C.ar    1  UNL1        0.0226
     31 C           5.1350    4.1550    0.0000 C.2     1  UNL1        0.3040
     32 C          10.3749    0.1276    0.0000 C.ar    1  UNL1        0.1462
     33 C           9.5112    1.7070    0.0000 C.ar    1  UNL1        0.1239
     34 C           9.4916   -1.3623    0.0000 C.ar    1  UNL1        0.1966
     35 C          10.4030    1.1689    0.0000 C.ar    1  UNL1        0.0231
     36 C           4.2690    4.6550    0.0000 C.3     1  UNL1        0.0332
     37 C          10.3518   -1.8722    0.0000 C.ar    1  UNL1        0.0288
     38 C          11.2236   -1.3823    0.0000 C.ar    1  UNL1        0.1392
     39 C          12.0838   -1.8923    0.0000 C.ar    1  UNL1        0.0176
     40 C          12.0722   -2.8922    0.0000 C.ar    1  UNL1       -0.0476
     41 C          12.9555   -1.4023    0.0000 C.ar    1  UNL1       -0.0476
     42 C          12.9324   -3.4022    0.0000 C.ar    1  UNL1       -0.0195
     43 C          13.8157   -1.9123    0.0000 C.ar    1  UNL1       -0.0195
     44 C          13.8041   -2.9122    0.0000 C.ar    1  UNL1        0.1169
     45 H           6.5380   -0.6550    0.0000 H       1  UNL1        0.0687
     46 H           5.1350   -0.4650    0.0000 H       1  UNL1        0.0648
     47 H           5.1350    1.7750    0.0000 H       1  UNL1        0.0647
     48 H           5.1350   -1.2250    0.0000 H       1  UNL1        0.0938
     49 H           7.4040    0.4650    0.0000 H       1  UNL1        0.1084
     50 H           6.5380    1.9650    0.0000 H       1  UNL1        0.0658
     51 H           5.1350   -3.4650    0.0000 H       1  UNL1        0.0671
     52 H           3.7320   -3.6550    0.0000 H       1  UNL1        0.0648
     53 H           2.8660   -2.5350    0.0000 H       1  UNL1        0.0646
     54 H           3.4030   -1.2250    0.0000 H       1  UNL1        0.0621
     55 H           6.6116    2.5473    0.0000 H       1  UNL1        0.0724
     56 H           6.2131    3.2376    0.0000 H       1  UNL1        0.0724
     57 H           2.8469   -0.8081    0.0000 H       1  UNL1        0.0255
     58 H           2.0000   -1.0350    0.0000 H       1  UNL1        0.0255
     59 H           2.2269   -1.8819    0.0000 H       1  UNL1        0.0255
     60 H           3.7320   -0.0350    0.0000 H       1  UNL1        0.2100
     61 H           4.2690    2.2750    0.0000 H       1  UNL1        0.2100
     62 H           6.0010   -3.9650    0.0000 H       1  UNL1        0.2101
     63 H           3.7320   -4.6550    0.0000 H       1  UNL1        0.2100
     64 H           2.0000   -3.0350    0.0000 H       1  UNL1        0.2100
     65 H           8.0686    1.5108    0.0000 H       1  UNL1        0.0691
     66 H          10.9470    1.4664    0.0000 H       1  UNL1        0.0691
     67 H           4.5790    5.1919    0.0000 H       1  UNL1        0.0342
     68 H           3.7320    4.9650    0.0000 H       1  UNL1        0.0342
     69 H           3.9590    4.1181    0.0000 H       1  UNL1        0.0342
     70 H          10.3446   -2.4922    0.0000 H       1  UNL1        0.0693
     71 H          10.0682    3.0085    0.0000 H       1  UNL1        0.2921
     72 H          11.5317   -3.1960    0.0000 H       1  UNL1        0.0626
     73 H          12.9627   -0.7824    0.0000 H       1  UNL1        0.0626
     74 H          12.9252   -4.0222    0.0000 H       1  UNL1        0.0654
     75 H          14.3562   -1.6085    0.0000 H       1  UNL1        0.0654
     76 H          15.2048   -3.1184    0.0000 H       1  UNL1        0.2921
@<TRIPOS>BOND
     1    16     1    1
     2    19     1    1
     3     2    20    1
     4     2    21    1
     5     3    19    1
     6     3    25    1
     7    17     4    1
     8     4    60    1
     9    20     5    1
    10     5    28    1
    11    18     6    1
    12     6    61    1
    13    22     7    1
    14     7    62    1
    15    23     8    1
    16     8    63    1
    17    24     9    1
    18     9    64    1
    19    10    26    1
    20    10    31    1
    21    11    32   ar
    22    11    38   ar
    23    12    31    2
    24    13    33    1
    25    13    71    1
    26    14    34    2
    27    15    44    1
    28    15    76    1
    29    16    17    1
    30    16    20    1
    31    16    45    1
    32    17    18    1
    33    17    46    1
    34    18    21    1
    35    18    47    1
    36    19    22    1
    37    19    48    1
    38    20    49    1
    39    21    26    1
    40    21    50    1
    41    22    23    1
    42    22    51    1
    43    23    24    1
    44    23    52    1
    45    24    25    1
    46    24    53    1
    47    25    27    1
    48    25    54    1
    49    26    55    1
    50    26    56    1
    51    27    57    1
    52    27    58    1
    53    27    59    1
    54    28    29   ar
    55    28    30   ar
    56    29    32   ar
    57    29    34   ar
    58    30    33   ar
    59    30    65    1
    60    31    36    1
    61    32    35   ar
    62    33    35   ar
    63    34    37   ar
    64    35    66    1
    65    36    67    1
    66    36    68    1
    67    36    69    1
    68    37    38   ar
    69    37    70    1
    70    38    39    1
    71    39    40   ar
    72    39    41   ar
    73    40    42   ar
    74    40    72    1
    75    41    43   ar
    76    41    73    1
    77    42    44   ar
    78    42    74    1
    79    43    44   ar
    80    43    75    1
