@<TRIPOS>MOLECULE
IMPHY014528
 54 57 0 0 0
SMALL
GASTEIGER

@<TRIPOS>ATOM
      1 O           3.2055   -2.6882    0.0000 O.3     1  UNL1       -0.3876
      2 O           2.9877    0.3800    0.0000 O.3     1  UNL1       -0.3870
      3 O           6.5359   -3.3031    0.0000 O.3     1  UNL1       -0.3944
      4 O           4.9131    2.4847    0.0000 O.3     1  UNL1       -0.3797
      5 O           4.0896    3.4680    0.0000 O.2     1  UNL1       -0.2893
      6 O           7.5682    0.4105    0.0000 O.3     1  UNL1       -0.3907
      7 C           4.8835   -1.5251    0.0000 C.3     1  UNL1        0.0075
      8 C           4.0274   -2.1185    0.0000 C.3     1  UNL1        0.0783
      9 C           4.9696   -2.5637    0.0000 C.3     1  UNL1        0.0261
     10 C           4.7896   -0.4877    0.0000 C.3     1  UNL1        0.0133
     11 C           3.8887   -0.0539    0.0000 C.3     1  UNL1        0.0846
     12 C           3.0889   -1.6666    0.0000 C.3     1  UNL1       -0.0179
     13 C           3.0191   -0.6273    0.0000 C.3     1  UNL1       -0.0111
     14 C           5.9662   -2.4812    0.0000 C.3     1  UNL1        0.0526
     15 C           4.5427   -3.4680    0.0000 C.3     1  UNL1       -0.0545
     16 C           3.6662    0.9211    0.0000 C.3     1  UNL1        0.0438
     17 C           5.6906   -0.0539    0.0000 C.2     1  UNL1       -0.0763
     18 C           4.2896    1.7029    0.0000 C.3     1  UNL1        0.1403
     19 C           2.0211   -0.6905    0.0000 C.3     1  UNL1       -0.0597
     20 C           5.2896    1.7029    0.0000 C.3     1  UNL1        0.0073
     21 C           5.9131    0.9211    0.0000 C.2     1  UNL1       -0.0449
     22 C           2.7364    1.2728    0.0000 C.2     1  UNL1       -0.0687
     23 C           3.7399    2.5311    0.0000 C.2     1  UNL1        0.1909
     24 C           2.7818    2.2658    0.0000 C.2     1  UNL1       -0.0086
     25 C           6.8881    1.1436    0.0000 C.3     1  UNL1        0.0654
     26 C           2.0000    2.8893    0.0000 C.3     1  UNL1       -0.0366
     27 H           5.7303   -1.4517    0.0000 H       1  UNL1        0.0342
     28 H           5.5290   -0.9071    0.0000 H       1  UNL1        0.0375
     29 H           2.4723   -1.6017    0.0000 H       1  UNL1        0.0297
     30 H           2.9195   -2.2630    0.0000 H       1  UNL1        0.0297
     31 H           2.8222   -0.0394    0.0000 H       1  UNL1        0.0327
     32 H           6.5294   -2.2219    0.0000 H       1  UNL1        0.0563
     33 H           5.8086   -1.8816    0.0000 H       1  UNL1        0.0563
     34 H           3.9821   -3.2033    0.0000 H       1  UNL1        0.0237
     35 H           4.2780   -4.0286    0.0000 H       1  UNL1        0.0237
     36 H           5.1034   -3.7326    0.0000 H       1  UNL1        0.0237
     37 H           4.4948    0.7319    0.0000 H       1  UNL1        0.0404
     38 H           6.1754   -0.4404    0.0000 H       1  UNL1        0.0576
     39 H           3.2566   -3.3061    0.0000 H       1  UNL1        0.2102
     40 H           1.9819   -0.0717    0.0000 H       1  UNL1        0.0233
     41 H           1.4023   -0.7297    0.0000 H       1  UNL1        0.0233
     42 H           2.0603   -1.3092    0.0000 H       1  UNL1        0.0233
     43 H           2.3694    0.3337    0.0000 H       1  UNL1        0.2102
     44 H           5.8482    1.9719    0.0000 H       1  UNL1        0.0343
     45 H           5.1517    2.3074    0.0000 H       1  UNL1        0.0343
     46 H           2.2184    0.9321    0.0000 H       1  UNL1        0.0580
     47 H           7.1538   -3.2520    0.0000 H       1  UNL1        0.2094
     48 H           5.5262    2.3923    0.0000 H       1  UNL1        0.2108
     49 H           7.4089    1.4800    0.0000 H       1  UNL1        0.0604
     50 H           6.6472    1.7149    0.0000 H       1  UNL1        0.0604
     51 H           2.3866    3.3740    0.0000 H       1  UNL1        0.0279
     52 H           1.5153    3.2759    0.0000 H       1  UNL1        0.0279
     53 H           1.6134    2.4046    0.0000 H       1  UNL1        0.0279
     54 H           8.1727    0.5485    0.0000 H       1  UNL1        0.2098
@<TRIPOS>BOND
     1     8     1    1
     2     1    39    1
     3    11     2    1
     4     2    43    1
     5     3    14    1
     6     3    47    1
     7    18     4    1
     8     4    48    1
     9     5    23    2
    10     6    25    1
    11     6    54    1
    12     7     8    1
    13     7     9    1
    14     7    10    1
    15     7    27    1
    16     8     9    1
    17     8    12    1
    18     9    14    1
    19     9    15    1
    20    10    11    1
    21    10    17    1
    22    10    28    1
    23    11    13    1
    24    11    16    1
    25    12    13    1
    26    12    29    1
    27    12    30    1
    28    13    19    1
    29    13    31    1
    30    14    32    1
    31    14    33    1
    32    15    34    1
    33    15    35    1
    34    15    36    1
    35    16    18    1
    36    16    22    1
    37    16    37    1
    38    17    21    2
    39    17    38    1
    40    18    20    1
    41    18    23    1
    42    19    40    1
    43    19    41    1
    44    19    42    1
    45    20    21    1
    46    20    44    1
    47    20    45    1
    48    21    25    1
    49    22    24    2
    50    22    46    1
    51    23    24    1
    52    24    26    1
    53    25    49    1
    54    25    50    1
    55    26    51    1
    56    26    52    1
    57    26    53    1
