@<TRIPOS>MOLECULE
IMPHY012254
 27 28 0 0 0
SMALL
GASTEIGER

@<TRIPOS>ATOM
      1 O           2.0000   -0.6902    0.0000 O.2     1  UNL1       -0.2971
      2 C           6.3887   -0.0329    0.0000 C.3     1  UNL1       -0.0282
      3 C           4.9898   -0.0417    0.0000 C.3     1  UNL1       -0.0261
      4 C           5.2486    0.9242    0.0000 C.3     1  UNL1       -0.0287
      5 C           4.5120    1.9068    0.0000 C.3     1  UNL1       -0.0454
      6 C           3.7687   -0.9074    0.0000 C.3     1  UNL1        0.0180
      7 C           3.2153    0.6130    0.0000 C.3     1  UNL1        0.0094
      8 C           2.9397   -0.3482    0.0000 C.2     1  UNL1        0.1367
      9 C           7.2547    0.4671    0.0000 C.3     1  UNL1       -0.0593
     10 C           6.8887   -0.8990    0.0000 C.3     1  UNL1       -0.0593
     11 C           3.8036   -1.9068    0.0000 C.3     1  UNL1       -0.0554
     12 H           4.7698   -0.8628    0.0000 H       1  UNL1        0.0313
     13 H           5.4686    1.7452    0.0000 H       1  UNL1        0.0310
     14 H           4.8298    2.4392    0.0000 H       1  UNL1        0.0271
     15 H           3.8988    1.9988    0.0000 H       1  UNL1        0.0271
     16 H           3.2265   -1.2080    0.0000 H       1  UNL1        0.0377
     17 H           3.2103    1.2330    0.0000 H       1  UNL1        0.0344
     18 H           2.6010    0.6968    0.0000 H       1  UNL1        0.0344
     19 H           7.5647   -0.0699    0.0000 H       1  UNL1        0.0235
     20 H           7.7916    0.7771    0.0000 H       1  UNL1        0.0235
     21 H           6.9447    1.0040    0.0000 H       1  UNL1        0.0235
     22 H           6.3518   -1.2090    0.0000 H       1  UNL1        0.0235
     23 H           7.1987   -1.4359    0.0000 H       1  UNL1        0.0235
     24 H           7.4256   -0.5890    0.0000 H       1  UNL1        0.0235
     25 H           3.1840   -1.9284    0.0000 H       1  UNL1        0.0236
     26 H           3.8253   -2.5264    0.0000 H       1  UNL1        0.0236
     27 H           4.4232   -1.8852    0.0000 H       1  UNL1        0.0236
@<TRIPOS>BOND
     1     1     8    2
     2     2     3    1
     3     2     4    1
     4     2     9    1
     5     2    10    1
     6     3     5    1
     7     3     6    1
     8     3    12    1
     9     4     5    1
    10     4     7    1
    11     4    13    1
    12     5    14    1
    13     5    15    1
    14     6     8    1
    15     6    11    1
    16     6    16    1
    17     7     8    1
    18     7    17    1
    19     7    18    1
    20     9    19    1
    21     9    20    1
    22     9    21    1
    23    10    22    1
    24    10    23    1
    25    10    24    1
    26    11    25    1
    27    11    26    1
    28    11    27    1
