@<TRIPOS>MOLECULE
IMPHY017581
 16 15 0 0 0
SMALL
GASTEIGER

@<TRIPOS>ATOM
      1 C           2.8660   -0.0600    0.0000 C.2     1  UNL1       -0.0578
      2 C           3.7320    0.4400    0.0000 C.2     1  UNL1       -0.0636
      3 C           2.0000    0.4400    0.0000 C.3     1  UNL1       -0.0403
      4 C           4.5981   -0.0600    0.0000 C.2     1  UNL1       -0.0869
      5 C           5.4641    0.4400    0.0000 C.3     1  UNL1       -0.0465
      6 C           2.8660   -1.0600    0.0000 C.2     1  UNL1       -0.0958
      7 H           3.7320    1.0600    0.0000 H       1  UNL1        0.0617
      8 H           2.3100    0.9769    0.0000 H       1  UNL1        0.0277
      9 H           1.4631    0.7500    0.0000 H       1  UNL1        0.0277
     10 H           1.6900   -0.0969    0.0000 H       1  UNL1        0.0277
     11 H           4.5981   -0.6800    0.0000 H       1  UNL1        0.0569
     12 H           5.7741   -0.0969    0.0000 H       1  UNL1        0.0272
     13 H           6.0010    0.7500    0.0000 H       1  UNL1        0.0272
     14 H           5.1541    0.9769    0.0000 H       1  UNL1        0.0272
     15 H           2.3291   -1.3700    0.0000 H       1  UNL1        0.0537
     16 H           3.4030   -1.3700    0.0000 H       1  UNL1        0.0537
@<TRIPOS>BOND
     1     1     2    1
     2     1     3    1
     3     1     6    2
     4     2     4    2
     5     2     7    1
     6     3     8    1
     7     3     9    1
     8     3    10    1
     9     4     5    1
    10     4    11    1
    11     5    12    1
    12     5    13    1
    13     5    14    1
    14     6    15    1
    15     6    16    1
