@<TRIPOS>MOLECULE
IMPHY012351
 38 39 0 0 0
SMALL
GASTEIGER

@<TRIPOS>ATOM
      1 O           8.1240   -1.6469    0.0000 O.3     1  UNL1       -0.3862
      2 O           8.1240    1.8636    0.0000 O.2     1  UNL1       -0.2914
      3 O           2.5369    1.1084    0.0000 O.3     1  UNL1       -0.3947
      4 C           8.3969    0.1084    0.0000 C.3     1  UNL1        0.0579
      5 C           7.8133   -0.6964    0.0000 C.3     1  UNL1        0.0929
      6 C           6.8671   -0.3916    0.0000 C.ar    1  UNL1       -0.0072
      7 C           6.8671    0.6084    0.0000 C.ar    1  UNL1        0.0269
      8 C           7.8133    0.9131    0.0000 C.2     1  UNL1        0.1721
      9 C           9.2059   -0.4794    0.0000 C.3     1  UNL1       -0.0500
     10 C           9.2059    0.6961    0.0000 C.3     1  UNL1       -0.0500
     11 C           6.0010    1.1084    0.0000 C.ar    1  UNL1       -0.0361
     12 C           6.0010   -0.8916    0.0000 C.ar    1  UNL1       -0.0522
     13 C           5.1350    0.6084    0.0000 C.ar    1  UNL1       -0.0387
     14 C           5.1350   -0.3916    0.0000 C.ar    1  UNL1       -0.0466
     15 C           4.2690    1.1084    0.0000 C.3     1  UNL1       -0.0039
     16 C           6.0010    2.1084    0.0000 C.3     1  UNL1       -0.0388
     17 C           4.2690   -0.8916    0.0000 C.3     1  UNL1       -0.0394
     18 C           3.4030    0.6084    0.0000 C.3     1  UNL1        0.0482
     19 H           7.3758   -1.1357    0.0000 H       1  UNL1        0.0653
     20 H           8.8415   -0.9810    0.0000 H       1  UNL1        0.0240
     21 H           9.7075   -0.8439    0.0000 H       1  UNL1        0.0240
     22 H           9.5703    0.0222    0.0000 H       1  UNL1        0.0240
     23 H           9.5703    0.1946    0.0000 H       1  UNL1        0.0240
     24 H           9.7075    1.0606    0.0000 H       1  UNL1        0.0240
     25 H           8.8415    1.1977    0.0000 H       1  UNL1        0.0240
     26 H           6.0010   -1.5116    0.0000 H       1  UNL1        0.0624
     27 H           7.7099   -2.1084    0.0000 H       1  UNL1        0.2103
     28 H           4.6675    1.5833    0.0000 H       1  UNL1        0.0335
     29 H           3.8705    1.5833    0.0000 H       1  UNL1        0.0335
     30 H           6.6210    2.1084    0.0000 H       1  UNL1        0.0278
     31 H           6.0010    2.7284    0.0000 H       1  UNL1        0.0278
     32 H           5.3810    2.1084    0.0000 H       1  UNL1        0.0278
     33 H           3.9590   -0.3547    0.0000 H       1  UNL1        0.0278
     34 H           3.7320   -1.2016    0.0000 H       1  UNL1        0.0278
     35 H           4.5790   -1.4286    0.0000 H       1  UNL1        0.0278
     36 H           3.0044    0.1334    0.0000 H       1  UNL1        0.0560
     37 H           3.8015    0.1334    0.0000 H       1  UNL1        0.0560
     38 H           2.0000    0.7984    0.0000 H       1  UNL1        0.2094
@<TRIPOS>BOND
     1     5     1    1
     2     1    27    1
     3     2     8    2
     4     3    18    1
     5     3    38    1
     6     4     5    1
     7     4     8    1
     8     4     9    1
     9     4    10    1
    10     5     6    1
    11     5    19    1
    12     6     7   ar
    13     6    12   ar
    14     7     8    1
    15     7    11   ar
    16     9    20    1
    17     9    21    1
    18     9    22    1
    19    10    23    1
    20    10    24    1
    21    10    25    1
    22    11    13   ar
    23    11    16    1
    24    12    14   ar
    25    12    26    1
    26    13    14   ar
    27    13    15    1
    28    14    17    1
    29    15    18    1
    30    15    28    1
    31    15    29    1
    32    16    30    1
    33    16    31    1
    34    16    32    1
    35    17    33    1
    36    17    34    1
    37    17    35    1
    38    18    36    1
    39    18    37    1
