@<TRIPOS>MOLECULE
IMPHY006236
 53 54 0 0 0
SMALL
GASTEIGER

@<TRIPOS>ATOM
      1 O           2.0000    2.1148    0.0000 O.2     1  UNL1       -0.2960
      2 O           4.0000    3.8469    0.0000 O.3     1  UNL1       -0.4775
      3 O           2.5000    2.9809    0.0000 O.2     1  UNL1       -0.2458
      4 C           4.8660   -1.8492    0.0000 C.3     1  UNL1       -0.0260
      5 C           4.0000   -1.3492    0.0000 C.3     1  UNL1       -0.0256
      6 C           4.8660   -2.8492    0.0000 C.3     1  UNL1       -0.0080
      7 C           3.1340   -1.8492    0.0000 C.3     1  UNL1       -0.0382
      8 C           4.0000   -3.3492    0.0000 C.3     1  UNL1       -0.0434
      9 C           3.1340   -2.8492    0.0000 C.3     1  UNL1       -0.0492
     10 C           5.7600   -1.3146    0.0000 C.3     1  UNL1       -0.0455
     11 C           3.5000   -0.4832    0.0000 C.3     1  UNL1       -0.0430
     12 C           5.7600   -3.3839    0.0000 C.2     1  UNL1       -0.0704
     13 C           4.5000   -0.4832    0.0000 C.3     1  UNL1       -0.0590
     14 C           4.8660   -3.8492    0.0000 C.3     1  UNL1       -0.0556
     15 C           6.6660   -1.8284    0.0000 C.3     1  UNL1       -0.0342
     16 C           2.2680   -1.3492    0.0000 C.3     1  UNL1       -0.0619
     17 C           6.6660   -2.8701    0.0000 C.2     1  UNL1       -0.0845
     18 C           4.0000    0.3828    0.0000 C.3     1  UNL1       -0.0239
     19 C           5.7484   -4.3838    0.0000 C.3     1  UNL1       -0.0433
     20 C           3.5000    1.2488    0.0000 C.2     1  UNL1       -0.0014
     21 C           4.0000    2.1148    0.0000 C.2     1  UNL1        0.0285
     22 C           2.5000    1.2488    0.0000 C.2     1  UNL1        0.1465
     23 C           3.5000    2.9809    0.0000 C.2     1  UNL1        0.3299
     24 H           4.8595   -0.9993    0.0000 H       1  UNL1        0.0315
     25 H           3.1340   -1.2292    0.0000 H       1  UNL1        0.0303
     26 H           3.6015   -3.8242    0.0000 H       1  UNL1        0.0274
     27 H           4.3985   -3.8242    0.0000 H       1  UNL1        0.0274
     28 H           2.5234   -2.7416    0.0000 H       1  UNL1        0.0268
     29 H           2.9219   -3.4319    0.0000 H       1  UNL1        0.0268
     30 H           6.1536   -0.8356    0.0000 H       1  UNL1        0.0271
     31 H           5.3554   -0.8448    0.0000 H       1  UNL1        0.0271
     32 H           3.0250   -0.0847    0.0000 H       1  UNL1        0.0274
     33 H           3.0250   -0.8818    0.0000 H       1  UNL1        0.0274
     34 H           5.0369   -0.7932    0.0000 H       1  UNL1        0.0235
     35 H           4.8100    0.0537    0.0000 H       1  UNL1        0.0235
     36 H           3.9631   -0.1732    0.0000 H       1  UNL1        0.0235
     37 H           4.2460   -3.8492    0.0000 H       1  UNL1        0.0238
     38 H           4.8660   -4.4692    0.0000 H       1  UNL1        0.0238
     39 H           5.4860   -3.8492    0.0000 H       1  UNL1        0.0238
     40 H           7.2769   -1.9345    0.0000 H       1  UNL1        0.0307
     41 H           6.8751   -1.2447    0.0000 H       1  UNL1        0.0307
     42 H           2.5780   -0.8123    0.0000 H       1  UNL1        0.0233
     43 H           1.7310   -1.0392    0.0000 H       1  UNL1        0.0233
     44 H           1.9580   -1.8862    0.0000 H       1  UNL1        0.0233
     45 H           7.2018   -3.1821    0.0000 H       1  UNL1        0.0572
     46 H           4.4750   -0.0157    0.0000 H       1  UNL1        0.0314
     47 H           4.4750    0.7813    0.0000 H       1  UNL1        0.0314
     48 H           5.1284   -4.3767    0.0000 H       1  UNL1        0.0275
     49 H           5.7412   -5.0038    0.0000 H       1  UNL1        0.0275
     50 H           6.3684   -4.3910    0.0000 H       1  UNL1        0.0275
     51 H           4.6200    2.1148    0.0000 H       1  UNL1        0.0692
     52 H           2.1900    0.7119    0.0000 H       1  UNL1        0.1078
     53 H           3.6900    4.3838    0.0000 H       1  UNL1        0.2954
@<TRIPOS>BOND
     1     1    22    2
     2     2    23    1
     3     2    53    1
     4     3    23    2
     5     4     5    1
     6     4     6    1
     7     4    10    1
     8     4    24    1
     9     5     7    1
    10     5    11    1
    11     5    13    1
    12     6     8    1
    13     6    12    1
    14     6    14    1
    15     7     9    1
    16     7    16    1
    17     7    25    1
    18     8     9    1
    19     8    26    1
    20     8    27    1
    21     9    28    1
    22     9    29    1
    23    10    15    1
    24    10    30    1
    25    10    31    1
    26    11    18    1
    27    11    32    1
    28    11    33    1
    29    12    17    2
    30    12    19    1
    31    13    34    1
    32    13    35    1
    33    13    36    1
    34    14    37    1
    35    14    38    1
    36    14    39    1
    37    15    17    1
    38    15    40    1
    39    15    41    1
    40    16    42    1
    41    16    43    1
    42    16    44    1
    43    17    45    1
    44    18    20    1
    45    18    46    1
    46    18    47    1
    47    19    48    1
    48    19    49    1
    49    19    50    1
    50    20    21    2
    51    20    22    1
    52    21    23    1
    53    21    51    1
    54    22    52    1
