@<TRIPOS>MOLECULE
IMPHY001668
 24 25 0 0 0
SMALL
GASTEIGER

@<TRIPOS>ATOM
      1 O           4.2690    2.0000    0.0000 O.3     1  UNL1       -0.5056
      2 O           4.2690   -2.0000    0.0000 O.3     1  UNL1       -0.5028
      3 O           2.5369   -1.0000    0.0000 O.3     1  UNL1       -0.5030
      4 O           6.0174    2.0346    0.0000 O.2     1  UNL1       -0.2871
      5 O           6.0174   -2.0346    0.0000 O.2     1  UNL1       -0.2871
      6 C           5.1350    0.5000    0.0000 C.ar    1  UNL1        0.0778
      7 C           5.1350   -0.5000    0.0000 C.ar    1  UNL1        0.0810
      8 C           3.4030    0.5000    0.0000 C.ar    1  UNL1        0.0367
      9 C           4.2690    1.0000    0.0000 C.ar    1  UNL1        0.1349
     10 C           4.2690   -1.0000    0.0000 C.ar    1  UNL1        0.1704
     11 C           3.4030   -0.5000    0.0000 C.ar    1  UNL1        0.1655
     12 C           6.0290    1.0347    0.0000 C.2     1  UNL1        0.1905
     13 C           6.0290   -1.0347    0.0000 C.2     1  UNL1        0.1906
     14 C           2.5369    1.0000    0.0000 C.3     1  UNL1       -0.0326
     15 C           6.9350    0.5208    0.0000 C.2     1  UNL1       -0.0106
     16 C           6.9350   -0.5208    0.0000 C.2     1  UNL1       -0.0106
     17 H           2.8469    1.5369    0.0000 H       1  UNL1        0.0280
     18 H           2.0000    1.3100    0.0000 H       1  UNL1        0.0280
     19 H           2.2269    0.4631    0.0000 H       1  UNL1        0.0280
     20 H           7.4708    0.8329    0.0000 H       1  UNL1        0.0657
     21 H           7.4708   -0.8329    0.0000 H       1  UNL1        0.0657
     22 H           3.7320    2.3100    0.0000 H       1  UNL1        0.2922
     23 H           3.7320   -2.3100    0.0000 H       1  UNL1        0.2923
     24 H           2.0000   -0.6900    0.0000 H       1  UNL1        0.2923
@<TRIPOS>BOND
     1     1     9    1
     2     1    22    1
     3     2    10    1
     4     2    23    1
     5     3    11    1
     6     3    24    1
     7     4    12    2
     8     5    13    2
     9     6     7   ar
    10     6     9   ar
    11     6    12    1
    12     7    10   ar
    13     7    13    1
    14     8     9   ar
    15     8    11   ar
    16     8    14    1
    17    10    11   ar
    18    12    15    1
    19    13    16    1
    20    14    17    1
    21    14    18    1
    22    14    19    1
    23    15    16    2
    24    15    20    1
    25    16    21    1
