@<TRIPOS>MOLECULE
IMPHY013523
 38 40 0 0 0
SMALL
GASTEIGER

@<TRIPOS>ATOM
      1 O           2.0000    1.6900    0.0000 O.2     1  UNL1       -0.2927
      2 C           5.5301   -0.3341    0.0000 C.3     1  UNL1       -0.0229
      3 C           6.3964   -0.8345    0.0000 C.3     1  UNL1       -0.0279
      4 C           6.3961    0.1659    0.0000 C.3     1  UNL1       -0.0312
      5 C           4.6641    0.1659    0.0000 C.3     1  UNL1       -0.0041
      6 C           6.3961    1.1659    0.0000 C.3     1  UNL1       -0.0457
      7 C           4.6641    1.1659    0.0000 C.2     1  UNL1       -0.0598
      8 C           3.7702   -0.3688    0.0000 C.3     1  UNL1       -0.0275
      9 C           7.3964   -0.8345    0.0000 C.3     1  UNL1       -0.0593
     10 C           5.8964   -1.7006    0.0000 C.3     1  UNL1       -0.0593
     11 C           5.5301    1.6659    0.0000 C.3     1  UNL1       -0.0305
     12 C           4.6641   -0.8341    0.0000 C.3     1  UNL1       -0.0553
     13 C           2.8641    0.1451    0.0000 C.3     1  UNL1        0.0132
     14 C           3.7702    1.7006    0.0000 C.2     1  UNL1       -0.0194
     15 C           3.7817   -1.3687    0.0000 C.3     1  UNL1       -0.0612
     16 C           2.8641    1.1867    0.0000 C.2     1  UNL1        0.1564
     17 H           5.1050   -1.0702    0.0000 H       1  UNL1        0.0317
     18 H           7.2462    0.1660    0.0000 H       1  UNL1        0.0309
     19 H           7.0067    1.0582    0.0000 H       1  UNL1        0.0271
     20 H           6.6082    1.7485    0.0000 H       1  UNL1        0.0271
     21 H           3.2362   -0.6839    0.0000 H       1  UNL1        0.0311
     22 H           7.3964   -1.4545    0.0000 H       1  UNL1        0.0235
     23 H           8.0164   -0.8345    0.0000 H       1  UNL1        0.0235
     24 H           7.3964   -0.2145    0.0000 H       1  UNL1        0.0235
     25 H           5.3595   -1.3906    0.0000 H       1  UNL1        0.0235
     26 H           5.5864   -2.2375    0.0000 H       1  UNL1        0.0235
     27 H           6.4333   -2.0106    0.0000 H       1  UNL1        0.0235
     28 H           5.9286    2.1408    0.0000 H       1  UNL1        0.0310
     29 H           5.1316    2.1408    0.0000 H       1  UNL1        0.0310
     30 H           4.0441   -0.8341    0.0000 H       1  UNL1        0.0238
     31 H           4.6641   -1.4541    0.0000 H       1  UNL1        0.0238
     32 H           5.2841   -0.8341    0.0000 H       1  UNL1        0.0238
     33 H           2.2532    0.2512    0.0000 H       1  UNL1        0.0348
     34 H           2.6550   -0.4386    0.0000 H       1  UNL1        0.0348
     35 H           3.7773    2.3205    0.0000 H       1  UNL1        0.0652
     36 H           3.1618   -1.3759    0.0000 H       1  UNL1        0.0233
     37 H           3.7889   -1.9886    0.0000 H       1  UNL1        0.0233
     38 H           4.4017   -1.3615    0.0000 H       1  UNL1        0.0233
@<TRIPOS>BOND
     1     1    16    2
     2     2     3    1
     3     2     4    1
     4     2     5    1
     5     2    17    1
     6     3     4    1
     7     3     9    1
     8     3    10    1
     9     4     6    1
    10     4    18    1
    11     5     7    1
    12     5     8    1
    13     5    12    1
    14     6    11    1
    15     6    19    1
    16     6    20    1
    17     7    11    1
    18     7    14    2
    19     8    13    1
    20     8    15    1
    21     8    21    1
    22     9    22    1
    23     9    23    1
    24     9    24    1
    25    10    25    1
    26    10    26    1
    27    10    27    1
    28    11    28    1
    29    11    29    1
    30    12    30    1
    31    12    31    1
    32    12    32    1
    33    13    16    1
    34    13    33    1
    35    13    34    1
    36    14    16    1
    37    14    35    1
    38    15    36    1
    39    15    37    1
    40    15    38    1
