@<TRIPOS>MOLECULE
IMPHY002295
 46 49 0 0 0
SMALL
GASTEIGER

@<TRIPOS>ATOM
      1 O           7.2622    2.5495    0.0000 O.3     1  UNL1       -0.4914
      2 O           2.1290   -2.6417    0.0000 O.3     1  UNL1       -0.4526
      3 O           7.2622    0.5012    0.0000 O.3     1  UNL1       -0.5033
      4 O           3.5228   -3.4464    0.0000 O.3     1  UNL1       -0.4526
      5 C           2.8660    1.0254    0.0000 C.3     1  UNL1       -0.0302
      6 C           2.8660    2.0254    0.0000 C.3     1  UNL1       -0.0365
      7 C           3.7320    0.5254    0.0000 C.3     1  UNL1        0.0125
      8 C           3.7320    2.5254    0.0000 C.3     1  UNL1       -0.0244
      9 C           4.5981    1.0254    0.0000 C.ar    1  UNL1       -0.0328
     10 C           4.5981    2.0254    0.0000 C.ar    1  UNL1       -0.0397
     11 C           2.0000    0.5254    0.0000 C.3     1  UNL1       -0.0613
     12 C           3.7320   -0.4746    0.0000 C.ar    1  UNL1       -0.0360
     13 C           2.0000    2.5254    0.0000 C.3     1  UNL1       -0.0618
     14 C           5.4920    0.4907    0.0000 C.ar    1  UNL1       -0.0125
     15 C           5.4920    2.5600    0.0000 C.ar    1  UNL1       -0.0128
     16 C           2.8660   -0.9746    0.0000 C.ar    1  UNL1       -0.0124
     17 C           4.5981   -0.9746    0.0000 C.ar    1  UNL1       -0.0543
     18 C           6.3981    1.0046    0.0000 C.ar    1  UNL1        0.1587
     19 C           6.3981    2.0462    0.0000 C.ar    1  UNL1        0.1615
     20 C           2.8660   -1.9746    0.0000 C.ar    1  UNL1        0.1665
     21 C           4.5981   -1.9746    0.0000 C.ar    1  UNL1       -0.0159
     22 C           3.7320   -2.4746    0.0000 C.ar    1  UNL1        0.1662
     23 C           2.5341   -3.5495    0.0000 C.3     1  UNL1        0.2332
     24 C           7.2583    3.5495    0.0000 C.3     1  UNL1        0.0790
     25 H           2.8660    0.4054    0.0000 H       1  UNL1        0.0310
     26 H           2.8660    2.6454    0.0000 H       1  UNL1        0.0304
     27 H           4.2690    0.2154    0.0000 H       1  UNL1        0.0400
     28 H           4.1306    3.0003    0.0000 H       1  UNL1        0.0316
     29 H           3.3335    3.0003    0.0000 H       1  UNL1        0.0316
     30 H           1.6900    1.0623    0.0000 H       1  UNL1        0.0233
     31 H           1.4631    0.2154    0.0000 H       1  UNL1        0.0233
     32 H           2.3100   -0.0116    0.0000 H       1  UNL1        0.0233
     33 H           2.3100    3.0623    0.0000 H       1  UNL1        0.0233
     34 H           1.4631    2.8354    0.0000 H       1  UNL1        0.0233
     35 H           1.6900    1.9884    0.0000 H       1  UNL1        0.0233
     36 H           5.4848   -0.1293    0.0000 H       1  UNL1        0.0658
     37 H           5.4848    3.1800    0.0000 H       1  UNL1        0.0658
     38 H           2.3291   -0.6646    0.0000 H       1  UNL1        0.0658
     39 H           5.1350   -0.6646    0.0000 H       1  UNL1        0.0622
     40 H           5.1350   -2.2846    0.0000 H       1  UNL1        0.0655
     41 H           7.8003    0.8091    0.0000 H       1  UNL1        0.2923
     42 H           1.9445   -3.7413    0.0000 H       1  UNL1        0.1166
     43 H           2.6628   -4.1560    0.0000 H       1  UNL1        0.1166
     44 H           7.8783    3.5519    0.0000 H       1  UNL1        0.0660
     45 H           7.2559    4.1695    0.0000 H       1  UNL1        0.0660
     46 H           6.6383    3.5471    0.0000 H       1  UNL1        0.0660
@<TRIPOS>BOND
     1     1    19    1
     2     1    24    1
     3     2    20    1
     4     2    23    1
     5     3    18    1
     6     3    41    1
     7     4    22    1
     8     4    23    1
     9     5     6    1
    10     5     7    1
    11     5    11    1
    12     5    25    1
    13     6     8    1
    14     6    13    1
    15     6    26    1
    16     7     9    1
    17     7    12    1
    18     7    27    1
    19     8    10    1
    20     8    28    1
    21     8    29    1
    22     9    10   ar
    23     9    14   ar
    24    10    15   ar
    25    11    30    1
    26    11    31    1
    27    11    32    1
    28    12    16   ar
    29    12    17   ar
    30    13    33    1
    31    13    34    1
    32    13    35    1
    33    14    18   ar
    34    14    36    1
    35    15    19   ar
    36    15    37    1
    37    16    20   ar
    38    16    38    1
    39    17    21   ar
    40    17    39    1
    41    18    19   ar
    42    20    22   ar
    43    21    22   ar
    44    21    40    1
    45    23    42    1
    46    23    43    1
    47    24    44    1
    48    24    45    1
    49    24    46    1
