@<TRIPOS>MOLECULE
IMPHY007463
 35 40 0 0 0
SMALL
GASTEIGER

@<TRIPOS>ATOM
      1 O           4.5732    3.5673    0.0000 O.3     1  UNL1       -0.4519
      2 O           3.1278    4.4167    0.0000 O.3     1  UNL1       -0.4526
      3 O           5.5740   -3.5278    0.0000 O.3     1  UNL1       -0.4526
      4 O           4.0684   -4.4125    0.0000 O.3     1  UNL1       -0.4526
      5 N           4.6501    0.3368    0.0000 N.ar    1  UNL1       -0.2536
      6 C           2.9180    0.3368    0.0000 C.ar    1  UNL1        0.0088
      7 C           2.9180    1.3368    0.0000 C.ar    1  UNL1       -0.0035
      8 C           3.7841   -0.1632    0.0000 C.ar    1  UNL1        0.0794
      9 C           3.8001   -1.2047    0.0000 C.ar    1  UNL1        0.0118
     10 C           3.7841    1.8368    0.0000 C.ar    1  UNL1        0.0463
     11 C           2.9021   -1.7324    0.0000 C.ar    1  UNL1       -0.0121
     12 C           3.8001    2.8783    0.0000 C.ar    1  UNL1        0.1754
     13 C           2.0080   -0.1700    0.0000 C.ar    1  UNL1       -0.0514
     14 C           4.7520   -1.7253    0.0000 C.ar    1  UNL1       -0.0064
     15 C           2.0000   -1.2116    0.0000 C.ar    1  UNL1       -0.0532
     16 C           2.0080    1.8437    0.0000 C.ar    1  UNL1       -0.0497
     17 C           4.7688   -2.8102    0.0000 C.ar    1  UNL1        0.1669
     18 C           2.9021    3.4061    0.0000 C.ar    1  UNL1        0.1669
     19 C           2.8937   -2.8174    0.0000 C.ar    1  UNL1       -0.0084
     20 C           3.8334   -3.3599    0.0000 C.ar    1  UNL1        0.1668
     21 C           4.6501    1.3368    0.0000 C.ar    1  UNL1        0.0396
     22 C           2.0000    2.8853    0.0000 C.ar    1  UNL1       -0.0155
     23 C           4.1585    4.5161    0.0000 C.3     1  UNL1        0.2333
     24 C           5.1420   -4.5161    0.0000 C.3     1  UNL1        0.2332
     25 H           1.4747    0.1462    0.0000 H       1  UNL1        0.0624
     26 H           5.2829   -1.4050    0.0000 H       1  UNL1        0.0662
     27 H           1.4619   -1.5195    0.0000 H       1  UNL1        0.0624
     28 H           1.4747    1.5275    0.0000 H       1  UNL1        0.0625
     29 H           2.3556   -3.1253    0.0000 H       1  UNL1        0.0661
     30 H           5.1870    1.6468    0.0000 H       1  UNL1        0.0837
     31 H           1.4619    3.1932    0.0000 H       1  UNL1        0.0655
     32 H           4.7495    4.7033    0.0000 H       1  UNL1        0.1166
     33 H           4.0344    5.1235    0.0000 H       1  UNL1        0.1166
     34 H           5.0180   -5.1235    0.0000 H       1  UNL1        0.1166
     35 H           5.7331   -4.7033    0.0000 H       1  UNL1        0.1166
@<TRIPOS>BOND
     1     1    12    1
     2     1    23    1
     3     2    18    1
     4     2    23    1
     5     3    17    1
     6     3    24    1
     7     4    20    1
     8     4    24    1
     9     5     8   ar
    10     5    21   ar
    11     6     7   ar
    12     6     8   ar
    13     6    13   ar
    14     7    10   ar
    15     7    16   ar
    16     8     9   ar
    17     9    11   ar
    18     9    14   ar
    19    10    12   ar
    20    10    21   ar
    21    11    15   ar
    22    11    19   ar
    23    12    18   ar
    24    13    15   ar
    25    13    25    1
    26    14    17   ar
    27    14    26    1
    28    15    27    1
    29    16    22   ar
    30    16    28    1
    31    17    20   ar
    32    18    22   ar
    33    19    20   ar
    34    19    29    1
    35    21    30    1
    36    22    31    1
    37    23    32    1
    38    23    33    1
    39    24    34    1
    40    24    35    1
