@<TRIPOS>MOLECULE
IMPHY008876
 21 23 0 0 0
SMALL
GASTEIGER

@<TRIPOS>ATOM
      1 O           3.5836    0.6751    0.0000 O.3     1  UNL1       -0.4560
      2 O           5.3959   -2.1296    0.0000 O.3     1  UNL1       -0.2233
      3 O           8.0321    0.3672    0.0000 O.2     1  UNL1       -0.2957
      4 O           2.0000   -0.1296    0.0000 O.2     1  UNL1       -0.2501
      5 C           4.5298   -0.6296    0.0000 C.3     1  UNL1        0.0530
      6 C           6.2619    0.3704    0.0000 C.3     1  UNL1        0.0712
      7 C           4.5298    0.3704    0.0000 C.3     1  UNL1        0.1321
      8 C           5.3959   -1.1296    0.0000 C.3     1  UNL1        0.1527
      9 C           5.3959    0.8704    0.0000 C.2     1  UNL1       -0.0142
     10 C           6.2619   -0.6296    0.0000 C.3     1  UNL1        0.0435
     11 C           3.5836   -0.9344    0.0000 C.3     1  UNL1        0.1010
     12 C           5.3798    1.9119    0.0000 C.2     1  UNL1       -0.0481
     13 C           7.1719    0.8772    0.0000 C.2     1  UNL1        0.1538
     14 C           7.1279   -0.1296    0.0000 C.3     1  UNL1        0.0116
     15 C           3.0000   -0.1296    0.0000 C.2     1  UNL1        0.3161
     16 C           6.2778    2.4396    0.0000 C.3     1  UNL1        0.0293
     17 C           7.1799    1.9188    0.0000 C.3     1  UNL1        0.0691
     18 C           3.2729   -1.8849    0.0000 C.3     1  UNL1        0.0115
     19 C           4.5080    2.4018    0.0000 C.3     1  UNL1        0.0258
     20 H           4.4452   -1.4251    0.0000 H       1  UNL1        0.0381
     21 H           4.4452    1.1659    0.0000 H       1  UNL1        0.0786
@<TRIPOS>BOND
     1     1     7    1
     2     1    15    1
     3     2     8    1
     4     3    13    2
     5     4    15    2
     6     5     7    1
     7     5     8    1
     8     5    11    1
     9     5    20    1
    10     6     9    1
    11     6    10    1
    12     6    13    1
    13     6    14    1
    14     7     9    1
    15     7    21    1
    16     8    10    1
    17     9    12    2
    18    11    15    1
    19    11    18    1
    20    12    16    1
    21    12    19    1
    22    13    17    1
    23    16    17    1
