@<TRIPOS>MOLECULE
IMPHY013353
 60 59 0 0 0
SMALL
GASTEIGER

@<TRIPOS>ATOM
      1 O           6.3301    0.4400    0.0000 O.3     1  UNL1       -0.4646
      2 O           7.1962   -1.0600    0.0000 O.2     1  UNL1       -0.2509
      3 C          11.5263    0.4400    0.0000 C.3     1  UNL1       -0.0531
      4 C          10.6603   -0.0600    0.0000 C.3     1  UNL1       -0.0530
      5 C          12.3923   -0.0600    0.0000 C.3     1  UNL1       -0.0530
      6 C          13.2583    0.4400    0.0000 C.3     1  UNL1       -0.0528
      7 C           9.7942    0.4400    0.0000 C.3     1  UNL1       -0.0526
      8 C          14.1244   -0.0600    0.0000 C.3     1  UNL1       -0.0496
      9 C           8.9282   -0.0600    0.0000 C.3     1  UNL1       -0.0430
     10 C          14.9904    0.4400    0.0000 C.3     1  UNL1       -0.0348
     11 C           8.0622    0.4400    0.0000 C.3     1  UNL1        0.0449
     12 C          15.8564   -0.0600    0.0000 C.2     1  UNL1       -0.0879
     13 C           7.1962   -0.0600    0.0000 C.2     1  UNL1        0.3071
     14 C           4.5981    0.4400    0.0000 C.3     1  UNL1       -0.0185
     15 C           3.7320   -0.0600    0.0000 C.3     1  UNL1       -0.0502
     16 C           5.4641   -0.0600    0.0000 C.3     1  UNL1        0.0925
     17 C           2.8660    0.4400    0.0000 C.3     1  UNL1       -0.0558
     18 C          16.7224    0.4400    0.0000 C.2     1  UNL1       -0.0879
     19 C          17.5885   -0.0600    0.0000 C.3     1  UNL1       -0.0350
     20 C          18.4545    0.4400    0.0000 C.3     1  UNL1       -0.0525
     21 C           2.0000   -0.0600    0.0000 C.3     1  UNL1       -0.0653
     22 C          19.3205   -0.0600    0.0000 C.3     1  UNL1       -0.0650
     23 H          11.9248    0.9149    0.0000 H       1  UNL1        0.0265
     24 H          11.1278    0.9149    0.0000 H       1  UNL1        0.0265
     25 H          10.2617   -0.5349    0.0000 H       1  UNL1        0.0265
     26 H          11.0588   -0.5349    0.0000 H       1  UNL1        0.0265
     27 H          11.9938   -0.5349    0.0000 H       1  UNL1        0.0265
     28 H          12.7908   -0.5349    0.0000 H       1  UNL1        0.0265
     29 H          10.1928    0.9149    0.0000 H       1  UNL1        0.0265
     30 H           9.3957    0.9149    0.0000 H       1  UNL1        0.0265
     31 H          13.6569    0.9149    0.0000 H       1  UNL1        0.0265
     32 H          12.8598    0.9149    0.0000 H       1  UNL1        0.0265
     33 H          13.7258   -0.5349    0.0000 H       1  UNL1        0.0268
     34 H          14.5229   -0.5349    0.0000 H       1  UNL1        0.0268
     35 H           8.5297   -0.5349    0.0000 H       1  UNL1        0.0270
     36 H           9.3267   -0.5349    0.0000 H       1  UNL1        0.0270
     37 H          15.3889    0.9149    0.0000 H       1  UNL1        0.0307
     38 H          14.5919    0.9149    0.0000 H       1  UNL1        0.0307
     39 H           8.4607    0.9149    0.0000 H       1  UNL1        0.0377
     40 H           7.6636    0.9149    0.0000 H       1  UNL1        0.0377
     41 H          15.8564   -0.6800    0.0000 H       1  UNL1        0.0569
     42 H           4.9966    0.9149    0.0000 H       1  UNL1        0.0298
     43 H           4.1996    0.9149    0.0000 H       1  UNL1        0.0298
     44 H           3.3335   -0.5349    0.0000 H       1  UNL1        0.0266
     45 H           4.1306   -0.5349    0.0000 H       1  UNL1        0.0266
     46 H           5.0656   -0.5349    0.0000 H       1  UNL1        0.0697
     47 H           5.8626   -0.5349    0.0000 H       1  UNL1        0.0697
     48 H           3.2646    0.9149    0.0000 H       1  UNL1        0.0263
     49 H           2.4675    0.9149    0.0000 H       1  UNL1        0.0263
     50 H          16.7224    1.0600    0.0000 H       1  UNL1        0.0569
     51 H          17.1899   -0.5349    0.0000 H       1  UNL1        0.0307
     52 H          17.9870   -0.5349    0.0000 H       1  UNL1        0.0307
     53 H          18.8530    0.9149    0.0000 H       1  UNL1        0.0266
     54 H          18.0560    0.9149    0.0000 H       1  UNL1        0.0266
     55 H           1.6900    0.4769    0.0000 H       1  UNL1        0.0230
     56 H           1.4631   -0.3700    0.0000 H       1  UNL1        0.0230
     57 H           2.3100   -0.5969    0.0000 H       1  UNL1        0.0230
     58 H          19.0105   -0.5969    0.0000 H       1  UNL1        0.0230
     59 H          19.8574   -0.3700    0.0000 H       1  UNL1        0.0230
     60 H          19.6305    0.4769    0.0000 H       1  UNL1        0.0230
@<TRIPOS>BOND
     1     1    13    1
     2     1    16    1
     3     2    13    2
     4     3     4    1
     5     3     5    1
     6     3    23    1
     7     3    24    1
     8     4     7    1
     9     4    25    1
    10     4    26    1
    11     5     6    1
    12     5    27    1
    13     5    28    1
    14     6     8    1
    15     6    31    1
    16     6    32    1
    17     7     9    1
    18     7    29    1
    19     7    30    1
    20     8    10    1
    21     8    33    1
    22     8    34    1
    23     9    11    1
    24     9    35    1
    25     9    36    1
    26    10    12    1
    27    10    37    1
    28    10    38    1
    29    11    13    1
    30    11    39    1
    31    11    40    1
    32    12    18    2
    33    12    41    1
    34    14    15    1
    35    14    16    1
    36    14    42    1
    37    14    43    1
    38    15    17    1
    39    15    44    1
    40    15    45    1
    41    16    46    1
    42    16    47    1
    43    17    21    1
    44    17    48    1
    45    17    49    1
    46    18    19    1
    47    18    50    1
    48    19    20    1
    49    19    51    1
    50    19    52    1
    51    20    22    1
    52    20    53    1
    53    20    54    1
    54    21    55    1
    55    21    56    1
    56    21    57    1
    57    22    58    1
    58    22    59    1
    59    22    60    1
