@<TRIPOS>MOLECULE
IMPHY002044
 56 58 0 0 0
SMALL
GASTEIGER

@<TRIPOS>ATOM
      1 O           8.1898   -0.0465    0.0000 O.3     1  UNL1       -0.3872
      2 O           2.3038   -2.4613    0.0000 O.3     1  UNL1       -0.3945
      3 C           4.6876   -0.0433    0.0000 C.3     1  UNL1       -0.0073
      4 C           4.6876   -1.0433    0.0000 C.3     1  UNL1       -0.0242
      5 C           3.7937   -1.5780    0.0000 C.3     1  UNL1       -0.0053
      6 C           5.5536    0.4567    0.0000 C.2     1  UNL1       -0.0617
      7 C           3.7937    0.4913    0.0000 C.3     1  UNL1       -0.0436
      8 C           5.5536   -1.5433    0.0000 C.3     1  UNL1       -0.0451
      9 C           2.8876   -1.0641    0.0000 C.3     1  UNL1       -0.0452
     10 C           6.4196   -0.0433    0.0000 C.2     1  UNL1       -0.0414
     11 C           2.8876   -0.0225    0.0000 C.3     1  UNL1       -0.0517
     12 C           6.4196   -1.0433    0.0000 C.3     1  UNL1       -0.0288
     13 C           4.6876    0.9567    0.0000 C.3     1  UNL1       -0.0556
     14 C           5.5376    1.4982    0.0000 C.3     1  UNL1       -0.0305
     15 C           7.3296    0.4635    0.0000 C.3     1  UNL1        0.0796
     16 C           7.3377    1.5051    0.0000 C.3     1  UNL1       -0.0085
     17 C           3.3037   -2.4497    0.0000 C.3     1  UNL1        0.0499
     18 C           4.3036   -2.4382    0.0000 C.3     1  UNL1       -0.0572
     19 C           6.4356    2.0259    0.0000 C.3     1  UNL1       -0.0436
     20 C           8.2056    2.0018    0.0000 C.3     1  UNL1       -0.0412
     21 C           8.2095    3.0018    0.0000 C.3     1  UNL1       -0.0623
     22 C           9.0697    1.4984    0.0000 C.3     1  UNL1       -0.0623
     23 H           4.6941   -1.8933    0.0000 H       1  UNL1        0.0315
     24 H           4.1982    0.9611    0.0000 H       1  UNL1        0.0274
     25 H           3.4000    0.9704    0.0000 H       1  UNL1        0.0274
     26 H           5.1551   -2.0183    0.0000 H       1  UNL1        0.0271
     27 H           5.9521   -2.0183    0.0000 H       1  UNL1        0.0271
     28 H           2.2767   -0.9580    0.0000 H       1  UNL1        0.0271
     29 H           2.6785   -1.6478    0.0000 H       1  UNL1        0.0271
     30 H           2.6785    0.5612    0.0000 H       1  UNL1        0.0266
     31 H           2.2767   -0.1286    0.0000 H       1  UNL1        0.0266
     32 H           6.6317   -1.6259    0.0000 H       1  UNL1        0.0311
     33 H           7.0302   -0.9357    0.0000 H       1  UNL1        0.0311
     34 H           5.3195    2.0786    0.0000 H       1  UNL1        0.0310
     35 H           4.9284    1.3827    0.0000 H       1  UNL1        0.0310
     36 H           5.3076    0.9567    0.0000 H       1  UNL1        0.0238
     37 H           4.6876    1.5767    0.0000 H       1  UNL1        0.0238
     38 H           4.0676    0.9567    0.0000 H       1  UNL1        0.0238
     39 H           7.8696    0.7683    0.0000 H       1  UNL1        0.0643
     40 H           7.3389    2.1251    0.0000 H       1  UNL1        0.0331
     41 H           3.2031   -3.0615    0.0000 H       1  UNL1        0.0562
     42 H           3.8887   -2.6550    0.0000 H       1  UNL1        0.0562
     43 H           3.7703   -2.7544    0.0000 H       1  UNL1        0.0236
     44 H           4.6198   -2.9715    0.0000 H       1  UNL1        0.0236
     45 H           4.8370   -2.1220    0.0000 H       1  UNL1        0.0236
     46 H           6.8329    2.5019    0.0000 H       1  UNL1        0.0272
     47 H           6.0346    2.4988    0.0000 H       1  UNL1        0.0272
     48 H           8.7438    2.3097    0.0000 H       1  UNL1        0.0299
     49 H           8.1827   -0.6664    0.0000 H       1  UNL1        0.2102
     50 H           2.0000   -3.0018    0.0000 H       1  UNL1        0.2094
     51 H           8.8295    2.9994    0.0000 H       1  UNL1        0.0232
     52 H           8.2119    3.6218    0.0000 H       1  UNL1        0.0232
     53 H           7.5895    3.0042    0.0000 H       1  UNL1        0.0232
     54 H           8.7576    0.9627    0.0000 H       1  UNL1        0.0232
     55 H           9.6054    1.1864    0.0000 H       1  UNL1        0.0232
     56 H           9.3818    2.0342    0.0000 H       1  UNL1        0.0232
@<TRIPOS>BOND
     1    15     1    1
     2     1    49    1
     3     2    17    1
     4     2    50    1
     5     3     4    1
     6     3     6    1
     7     3     7    1
     8     3    13    1
     9     4     5    1
    10     4     8    1
    11     4    23    1
    12     5     9    1
    13     5    17    1
    14     5    18    1
    15     6    10    2
    16     6    14    1
    17     7    11    1
    18     7    24    1
    19     7    25    1
    20     8    12    1
    21     8    26    1
    22     8    27    1
    23     9    11    1
    24     9    28    1
    25     9    29    1
    26    10    12    1
    27    10    15    1
    28    11    30    1
    29    11    31    1
    30    12    32    1
    31    12    33    1
    32    13    36    1
    33    13    37    1
    34    13    38    1
    35    14    19    1
    36    14    34    1
    37    14    35    1
    38    15    16    1
    39    15    39    1
    40    16    19    1
    41    16    20    1
    42    16    40    1
    43    17    41    1
    44    17    42    1
    45    18    43    1
    46    18    44    1
    47    18    45    1
    48    19    46    1
    49    19    47    1
    50    20    21    1
    51    20    22    1
    52    20    48    1
    53    21    51    1
    54    21    52    1
    55    21    53    1
    56    22    54    1
    57    22    55    1
    58    22    56    1
