@<TRIPOS>MOLECULE
IMPHY015753
 43 44 0 0 0
SMALL
GASTEIGER

@<TRIPOS>ATOM
      1 O           4.8376   -1.2272    0.0000 O.3     1  UNL1       -0.4606
      2 O           3.2678   -0.4952    0.0000 O.2     1  UNL1       -0.2505
      3 C           6.6330    0.2711    0.0000 C.3     1  UNL1        0.0104
      4 C           6.1552    2.2196    0.0000 C.3     1  UNL1       -0.0232
      5 C           6.8918    1.2370    0.0000 C.3     1  UNL1       -0.0319
      6 C           5.2602   -0.3209    0.0000 C.3     1  UNL1        0.1092
      7 C           8.0319   -0.2377    0.0000 C.3     1  UNL1       -0.0435
      8 C           4.9182    0.6188    0.0000 C.3     1  UNL1       -0.0118
      9 C           8.2907    0.7282    0.0000 C.3     1  UNL1       -0.0490
     10 C           6.3741   -0.6948    0.0000 C.3     1  UNL1       -0.0557
     11 C           6.2597    3.2142    0.0000 C.3     1  UNL1       -0.0589
     12 C           5.2416    2.6264    0.0000 C.3     1  UNL1       -0.0589
     13 C           3.8414   -1.3144    0.0000 C.2     1  UNL1        0.3102
     14 C           3.4188   -2.2207    0.0000 C.3     1  UNL1        0.0534
     15 C           2.4226   -2.3078    0.0000 C.3     1  UNL1       -0.0432
     16 C           3.9924   -3.0398    0.0000 C.3     1  UNL1       -0.0523
     17 C           2.0000   -3.2142    0.0000 C.3     1  UNL1       -0.0645
     18 H           6.8777    0.6172    0.0000 H       1  UNL1        0.0307
     19 H           5.6922   -0.7657    0.0000 H       1  UNL1        0.0739
     20 H           7.8370   -0.8263    0.0000 H       1  UNL1        0.0272
     21 H           8.6258   -0.4155    0.0000 H       1  UNL1        0.0272
     22 H           4.7239    1.2075    0.0000 H       1  UNL1        0.0304
     23 H           4.3325    0.4156    0.0000 H       1  UNL1        0.0304
     24 H           8.8847    0.5504    0.0000 H       1  UNL1        0.0268
     25 H           8.4856    1.3168    0.0000 H       1  UNL1        0.0268
     26 H           5.7753   -0.5344    0.0000 H       1  UNL1        0.0236
     27 H           6.2137   -1.2937    0.0000 H       1  UNL1        0.0236
     28 H           6.9730   -0.8553    0.0000 H       1  UNL1        0.0236
     29 H           6.8763    3.1494    0.0000 H       1  UNL1        0.0235
     30 H           6.3245    3.8308    0.0000 H       1  UNL1        0.0235
     31 H           5.6431    3.2790    0.0000 H       1  UNL1        0.0235
     32 H           5.4938    3.1928    0.0000 H       1  UNL1        0.0235
     33 H           4.6752    2.8786    0.0000 H       1  UNL1        0.0235
     34 H           4.9894    2.0600    0.0000 H       1  UNL1        0.0235
     35 H           3.1568   -2.7826    0.0000 H       1  UNL1        0.0410
     36 H           2.4766   -1.6902    0.0000 H       1  UNL1        0.0270
     37 H           1.8237   -2.1474    0.0000 H       1  UNL1        0.0270
     38 H           3.4845   -3.3955    0.0000 H       1  UNL1        0.0238
     39 H           4.3480   -3.5477    0.0000 H       1  UNL1        0.0238
     40 H           4.5003   -2.6842    0.0000 H       1  UNL1        0.0238
     41 H           1.4381   -2.9521    0.0000 H       1  UNL1        0.0230
     42 H           1.7380   -3.7761    0.0000 H       1  UNL1        0.0230
     43 H           2.5619   -3.4762    0.0000 H       1  UNL1        0.0230
@<TRIPOS>BOND
     1     1     6    1
     2     1    13    1
     3     2    13    2
     4     3     4    1
     5     3     6    1
     6     3     7    1
     7     3    10    1
     8     4     5    1
     9     4    11    1
    10     4    12    1
    11     5     8    1
    12     5     9    1
    13     5    18    1
    14     6     8    1
    15     6    19    1
    16     7     9    1
    17     7    20    1
    18     7    21    1
    19     8    22    1
    20     8    23    1
    21     9    24    1
    22     9    25    1
    23    10    26    1
    24    10    27    1
    25    10    28    1
    26    11    29    1
    27    11    30    1
    28    11    31    1
    29    12    32    1
    30    12    33    1
    31    12    34    1
    32    13    14    1
    33    14    15    1
    34    14    16    1
    35    14    35    1
    36    15    17    1
    37    15    36    1
    38    15    37    1
    39    16    38    1
    40    16    39    1
    41    16    40    1
    42    17    41    1
    43    17    42    1
    44    17    43    1
