@<TRIPOS>MOLECULE
IMPHY013967
 84 88 0 0 0
SMALL
GASTEIGER

@<TRIPOS>ATOM
      1 O          10.9848    2.7352    0.0000 O.3     1  UNL1       -0.3886
      2 O           9.1654    3.7671    0.0000 O.3     1  UNL1       -0.3892
      3 O           3.3248    0.5236    0.0000 O.3     1  UNL1       -0.3880
      4 O          11.6174    0.2751    0.0000 O.3     1  UNL1       -0.3944
      5 O           3.8493   -3.4509    0.0000 O.3     1  UNL1       -0.4802
      6 O           5.5813   -3.4642    0.0000 O.2     1  UNL1       -0.2504
      7 C           7.3770   -0.4091    0.0000 C.3     1  UNL1       -0.0194
      8 C           7.3770    0.5909    0.0000 C.3     1  UNL1       -0.0257
      9 C           8.2709    1.1255    0.0000 C.3     1  UNL1       -0.0225
     10 C           6.5109   -0.9091    0.0000 C.3     1  UNL1       -0.0050
     11 C           9.1770    0.6117    0.0000 C.3     1  UNL1       -0.0253
     12 C           8.2709   -0.9438    0.0000 C.3     1  UNL1       -0.0463
     13 C           5.6449   -0.4091    0.0000 C.2     1  UNL1       -0.0602
     14 C           9.1770   -0.4300    0.0000 C.3     1  UNL1       -0.0485
     15 C          10.1208    1.1469    0.0000 C.3     1  UNL1        0.0227
     16 C           4.7349   -0.9160    0.0000 C.3     1  UNL1        0.0252
     17 C           6.5109    1.0909    0.0000 C.3     1  UNL1       -0.0306
     18 C           8.2458    2.2102    0.0000 C.3     1  UNL1       -0.0184
     19 C           6.5270   -1.9506    0.0000 C.3     1  UNL1       -0.0424
     20 C           4.7269   -1.9576    0.0000 C.3     1  UNL1        0.0767
     21 C           5.6290   -2.4784    0.0000 C.3     1  UNL1       -0.0358
     22 C           7.7191   -1.3488    0.0000 C.3     1  UNL1       -0.0585
     23 C          10.1208    2.2319    0.0000 C.3     1  UNL1        0.0888
     24 C           5.6449    0.5909    0.0000 C.2     1  UNL1       -0.0835
     25 C           7.4010    1.6188    0.0000 C.3     1  UNL1       -0.0589
     26 C           9.1770    2.7671    0.0000 C.3     1  UNL1        0.0822
     27 C           3.8081   -0.3519    0.0000 C.3     1  UNL1        0.0733
     28 C           7.1537   -1.6752    0.0000 C.3     1  UNL1       -0.0553
     29 C           3.7914   -2.5073    0.0000 C.3     1  UNL1       -0.0363
     30 C           2.8602   -0.8799    0.0000 C.3     1  UNL1       -0.0146
     31 C          11.1207    1.1431    0.0000 C.3     1  UNL1        0.0523
     32 C          10.6174    0.2790    0.0000 C.3     1  UNL1       -0.0547
     33 C           2.8518   -1.9648    0.0000 C.3     1  UNL1       -0.0468
     34 C           4.7192   -2.9576    0.0000 C.2     1  UNL1        0.3116
     35 C           4.3247    0.5043    0.0000 C.3     1  UNL1       -0.0352
     36 C           2.0000   -0.3699    0.0000 C.3     1  UNL1       -0.0598
     37 H           8.1163    0.1715    0.0000 H       1  UNL1        0.0315
     38 H           9.9114    0.1838    0.0000 H       1  UNL1        0.0313
     39 H           7.8663   -1.4136    0.0000 H       1  UNL1        0.0271
     40 H           8.6645   -1.4228    0.0000 H       1  UNL1        0.0271
     41 H           9.3860   -1.0136    0.0000 H       1  UNL1        0.0268
     42 H           9.7878   -0.3239    0.0000 H       1  UNL1        0.0268
     43 H           4.7513   -0.0661    0.0000 H       1  UNL1        0.0384
     44 H           6.9095    1.5658    0.0000 H       1  UNL1        0.0310
     45 H           6.1124    1.5658    0.0000 H       1  UNL1        0.0310
     46 H           8.0233    2.7889    0.0000 H       1  UNL1        0.0296
     47 H           7.6376    2.0900    0.0000 H       1  UNL1        0.0296
     48 H           6.7450   -2.5310    0.0000 H       1  UNL1        0.0274
     49 H           7.1361   -1.8352    0.0000 H       1  UNL1        0.0274
     50 H           5.2316   -2.9544    0.0000 H       1  UNL1        0.0276
     51 H           6.0299   -2.9513    0.0000 H       1  UNL1        0.0276
     52 H           7.1365   -1.5609    0.0000 H       1  UNL1        0.0235
     53 H           7.9312   -1.9314    0.0000 H       1  UNL1        0.0235
     54 H           8.3017   -1.1367    0.0000 H       1  UNL1        0.0235
     55 H          10.6583    1.9229    0.0000 H       1  UNL1        0.0625
     56 H           5.1080    0.9009    0.0000 H       1  UNL1        0.0572
     57 H           7.7069    2.1581    0.0000 H       1  UNL1        0.0235
     58 H           6.8617    1.9247    0.0000 H       1  UNL1        0.0235
     59 H           7.0952    1.0795    0.0000 H       1  UNL1        0.0235
     60 H           8.6359    3.0699    0.0000 H       1  UNL1        0.0619
     61 H           6.6788   -2.0737    0.0000 H       1  UNL1        0.0238
     62 H           7.5522   -2.1501    0.0000 H       1  UNL1        0.0238
     63 H           7.6287   -1.2767    0.0000 H       1  UNL1        0.0238
     64 H           3.3942   -2.9833    0.0000 H       1  UNL1        0.0276
     65 H           4.1924   -2.9802    0.0000 H       1  UNL1        0.0276
     66 H           2.8686   -0.2599    0.0000 H       1  UNL1        0.0326
     67 H          11.7042    1.3529    0.0000 H       1  UNL1        0.0563
     68 H          11.0154    1.7540    0.0000 H       1  UNL1        0.0563
     69 H          10.0793   -0.0290    0.0000 H       1  UNL1        0.0237
     70 H          10.9253   -0.2592    0.0000 H       1  UNL1        0.0237
     71 H          11.1555    0.5869    0.0000 H       1  UNL1        0.0237
     72 H           2.2418   -1.8540    0.0000 H       1  UNL1        0.0269
     73 H           2.6383   -2.5469    0.0000 H       1  UNL1        0.0269
     74 H           4.8555    0.1840    0.0000 H       1  UNL1        0.0257
     75 H           4.6450    1.0352    0.0000 H       1  UNL1        0.0257
     76 H           3.7938    0.8246    0.0000 H       1  UNL1        0.0257
     77 H          10.9825    3.3552    0.0000 H       1  UNL1        0.2099
     78 H           2.3162    0.1634    0.0000 H       1  UNL1        0.0233
     79 H           1.4667   -0.0537    0.0000 H       1  UNL1        0.0233
     80 H           1.6838   -0.9032    0.0000 H       1  UNL1        0.0233
     81 H           8.6249    4.0708    0.0000 H       1  UNL1        0.2099
     82 H           2.7050    0.5355    0.0000 H       1  UNL1        0.2102
     83 H          12.2374    0.2727    0.0000 H       1  UNL1        0.2094
     84 H           3.8445   -4.0708    0.0000 H       1  UNL1        0.2951
@<TRIPOS>BOND
     1    23     1    1
     2     1    77    1
     3    26     2    1
     4     2    81    1
     5    27     3    1
     6     3    82    1
     7     4    31    1
     8     4    83    1
     9     5    34    1
    10     5    84    1
    11     6    34    2
    12     7     8    1
    13     7    10    1
    14     7    12    1
    15     7    22    1
    16     8     9    1
    17     8    17    1
    18     8    37    1
    19     9    11    1
    20     9    18    1
    21     9    25    1
    22    10    13    1
    23    10    19    1
    24    10    28    1
    25    11    14    1
    26    11    15    1
    27    11    38    1
    28    12    14    1
    29    12    39    1
    30    12    40    1
    31    13    16    1
    32    13    24    2
    33    14    41    1
    34    14    42    1
    35    15    23    1
    36    15    31    1
    37    15    32    1
    38    16    20    1
    39    16    27    1
    40    16    43    1
    41    17    24    1
    42    17    44    1
    43    17    45    1
    44    18    26    1
    45    18    46    1
    46    18    47    1
    47    19    21    1
    48    19    48    1
    49    19    49    1
    50    20    21    1
    51    20    29    1
    52    20    34    1
    53    21    50    1
    54    21    51    1
    55    22    52    1
    56    22    53    1
    57    22    54    1
    58    23    26    1
    59    23    55    1
    60    24    56    1
    61    25    57    1
    62    25    58    1
    63    25    59    1
    64    26    60    1
    65    27    30    1
    66    27    35    1
    67    28    61    1
    68    28    62    1
    69    28    63    1
    70    29    33    1
    71    29    64    1
    72    29    65    1
    73    30    33    1
    74    30    36    1
    75    30    66    1
    76    31    67    1
    77    31    68    1
    78    32    69    1
    79    32    70    1
    80    32    71    1
    81    33    72    1
    82    33    73    1
    83    35    74    1
    84    35    75    1
    85    35    76    1
    86    36    78    1
    87    36    79    1
    88    36    80    1
