@<TRIPOS>MOLECULE
IMPHY009580
 26 28 0 0 0
SMALL
GASTEIGER

@<TRIPOS>ATOM
      1 C           5.5321   -1.2673    0.0000 C.3     1  UNL1       -0.0231
      2 C           4.6660   -1.7673    0.0000 C.3     1  UNL1       -0.0231
      3 C           3.8000   -1.2673    0.0000 C.ar    1  UNL1       -0.0393
      4 C           5.5321   -0.2673    0.0000 C.ar    1  UNL1       -0.0393
      5 C           3.8000   -0.2673    0.0000 C.ar    1  UNL1       -0.0144
      6 C           4.6660    0.2327    0.0000 C.ar    1  UNL1       -0.0144
      7 C           6.4421    0.2395    0.0000 C.ar    1  UNL1       -0.0580
      8 C           2.9061   -1.8020    0.0000 C.ar    1  UNL1       -0.0580
      9 C           4.6500    1.2742    0.0000 C.ar    1  UNL1       -0.0538
     10 C           2.9061    0.2674    0.0000 C.ar    1  UNL1       -0.0538
     11 C           2.0000   -1.2881    0.0000 C.ar    1  UNL1       -0.0615
     12 C           6.4501    1.2812    0.0000 C.ar    1  UNL1       -0.0615
     13 C           2.0000   -0.2465    0.0000 C.ar    1  UNL1       -0.0612
     14 C           5.5480    1.8020    0.0000 C.ar    1  UNL1       -0.0612
     15 H           5.7441   -1.8499    0.0000 H       1  UNL1        0.0316
     16 H           6.1426   -1.1596    0.0000 H       1  UNL1        0.0316
     17 H           4.2675   -2.2422    0.0000 H       1  UNL1        0.0316
     18 H           5.0646   -2.2422    0.0000 H       1  UNL1        0.0316
     19 H           6.9754   -0.0766    0.0000 H       1  UNL1        0.0620
     20 H           2.9132   -2.4219    0.0000 H       1  UNL1        0.0620
     21 H           4.1095    1.5780    0.0000 H       1  UNL1        0.0624
     22 H           2.9132    0.8873    0.0000 H       1  UNL1        0.0624
     23 H           6.9882    1.5891    0.0000 H       1  UNL1        0.0618
     24 H           1.4643   -1.6002    0.0000 H       1  UNL1        0.0618
     25 H           5.5456    2.4220    0.0000 H       1  UNL1        0.0618
     26 H           1.4643    0.0656    0.0000 H       1  UNL1        0.0618
@<TRIPOS>BOND
     1     1     2    1
     2     1     4    1
     3     1    15    1
     4     1    16    1
     5     2     3    1
     6     2    17    1
     7     2    18    1
     8     3     5   ar
     9     3     8   ar
    10     4     6   ar
    11     4     7   ar
    12     5     6    1
    13     5    10   ar
    14     6     9   ar
    15     7    12   ar
    16     7    19    1
    17     8    11   ar
    18     8    20    1
    19     9    14   ar
    20     9    21    1
    21    10    13   ar
    22    10    22    1
    23    11    13   ar
    24    11    24    1
    25    12    14   ar
    26    12    23    1
    27    13    26    1
    28    14    25    1
