@<TRIPOS>MOLECULE
IMPHY017874
 41 41 0 0 0
SMALL
GASTEIGER

@<TRIPOS>ATOM
      1 C           4.5981    1.2500    0.0000 C.3     1  UNL1       -0.0078
      2 C           4.5981   -0.7500    0.0000 C.3     1  UNL1       -0.0381
      3 C           3.7320    0.7500    0.0000 C.3     1  UNL1       -0.0113
      4 C           3.7320   -0.2500    0.0000 C.3     1  UNL1       -0.0427
      5 C           5.4641    0.7500    0.0000 C.3     1  UNL1       -0.0434
      6 C           5.4641   -0.2500    0.0000 C.3     1  UNL1       -0.0492
      7 C           4.5981   -1.7500    0.0000 C.3     1  UNL1       -0.0439
      8 C           4.0981    2.1160    0.0000 C.3     1  UNL1       -0.0556
      9 C           2.8660    1.2500    0.0000 C.2     1  UNL1       -0.0758
     10 C           5.0981    2.1160    0.0000 C.2     1  UNL1       -0.0846
     11 C           5.4641   -2.2500    0.0000 C.3     1  UNL1       -0.0624
     12 C           3.7320   -2.2500    0.0000 C.3     1  UNL1       -0.0624
     13 C           2.0000    0.7500    0.0000 C.3     1  UNL1       -0.0437
     14 C           2.8660    2.2500    0.0000 C.2     1  UNL1       -0.0994
     15 C           6.0981    2.1160    0.0000 C.2     1  UNL1       -0.1021
     16 H           5.1350   -1.0600    0.0000 H       1  UNL1        0.0303
     17 H           3.7320    1.3700    0.0000 H       1  UNL1        0.0354
     18 H           3.1215   -0.1423    0.0000 H       1  UNL1        0.0274
     19 H           3.5200   -0.8326    0.0000 H       1  UNL1        0.0274
     20 H           6.0747    0.6423    0.0000 H       1  UNL1        0.0274
     21 H           5.6762    1.3326    0.0000 H       1  UNL1        0.0274
     22 H           5.6762   -0.8326    0.0000 H       1  UNL1        0.0268
     23 H           6.0747   -0.1423    0.0000 H       1  UNL1        0.0268
     24 H           4.5981   -2.3700    0.0000 H       1  UNL1        0.0298
     25 H           4.6350    2.4260    0.0000 H       1  UNL1        0.0238
     26 H           3.7881    2.6530    0.0000 H       1  UNL1        0.0238
     27 H           3.5611    1.8060    0.0000 H       1  UNL1        0.0238
     28 H           4.7881    2.6530    0.0000 H       1  UNL1        0.0572
     29 H           5.1541   -2.7869    0.0000 H       1  UNL1        0.0232
     30 H           6.0010   -2.5600    0.0000 H       1  UNL1        0.0232
     31 H           5.7741   -1.7131    0.0000 H       1  UNL1        0.0232
     32 H           3.4220   -1.7131    0.0000 H       1  UNL1        0.0232
     33 H           3.1951   -2.5600    0.0000 H       1  UNL1        0.0232
     34 H           4.0420   -2.7869    0.0000 H       1  UNL1        0.0232
     35 H           1.6900    1.2869    0.0000 H       1  UNL1        0.0274
     36 H           1.4631    0.4400    0.0000 H       1  UNL1        0.0274
     37 H           2.3100    0.2131    0.0000 H       1  UNL1        0.0274
     38 H           3.4030    2.5600    0.0000 H       1  UNL1        0.0534
     39 H           2.3291    2.5600    0.0000 H       1  UNL1        0.0534
     40 H           6.4081    1.5791    0.0000 H       1  UNL1        0.0532
     41 H           6.4081    2.6530    0.0000 H       1  UNL1        0.0532
@<TRIPOS>BOND
     1     1     3    1
     2     1     5    1
     3     1     8    1
     4     1    10    1
     5     2     4    1
     6     2     6    1
     7     2     7    1
     8     2    16    1
     9     3     4    1
    10     3     9    1
    11     3    17    1
    12     4    18    1
    13     4    19    1
    14     5     6    1
    15     5    20    1
    16     5    21    1
    17     6    22    1
    18     6    23    1
    19     7    11    1
    20     7    12    1
    21     7    24    1
    22     8    25    1
    23     8    26    1
    24     8    27    1
    25     9    13    1
    26     9    14    2
    27    10    15    2
    28    10    28    1
    29    11    29    1
    30    11    30    1
    31    11    31    1
    32    12    32    1
    33    12    33    1
    34    12    34    1
    35    13    35    1
    36    13    36    1
    37    13    37    1
    38    14    38    1
    39    14    39    1
    40    15    40    1
    41    15    41    1
