@<TRIPOS>MOLECULE
IMPHY016181
 9 8 0 0 0
SMALL
GASTEIGER

@<TRIPOS>ATOM
      1 C           6.0010    1.1550    0.0000 C.3     1  UNL1       -0.0016
      2 C           5.1350    0.6550    0.0000 C.1     1  UNL1       -0.0918
      3 C           4.2690    0.1550    0.0000 C.1     1  UNL1       -0.0154
      4 C           3.4030   -0.3450    0.0000 C.1     1  UNL1       -0.0182
      5 C           2.5369   -0.8450    0.0000 C.1     1  UNL1       -0.1053
      6 H           6.3110    0.6181    0.0000 H       1  UNL1        0.0362
      7 H           6.5380    1.4650    0.0000 H       1  UNL1        0.0362
      8 H           5.6910    1.6919    0.0000 H       1  UNL1        0.0362
      9 H           2.0000   -1.1550    0.0000 H       1  UNL1        0.1238
@<TRIPOS>BOND
     1     1     2    1
     2     1     6    1
     3     1     7    1
     4     1     8    1
     5     2     3    3
     6     3     4    1
     7     4     5    3
     8     5     9    1
