@<TRIPOS>MOLECULE
IMPHY014186
 63 68 0 0 0
SMALL
GASTEIGER

@<TRIPOS>ATOM
      1 O           6.9088    2.7653    0.0000 O.3     1  UNL1       -0.4828
      2 O           6.9088    5.7653    0.0000 O.2     1  UNL1       -0.2917
      3 O           9.5068    0.2653    0.0000 O.3     1  UNL1       -0.4524
      4 O           5.1603    5.7999    0.0000 O.3     1  UNL1       -0.5058
      5 O           3.3786    2.7411    0.0000 O.3     1  UNL1       -0.4949
      6 O          11.2389    1.2653    0.0000 O.3     1  UNL1       -0.5033
      7 O           6.0427   -2.7347    0.0000 O.2     1  UNL1       -0.4544
      8 O           2.5405   -2.7316    0.0000 O.3     1  UNL1       -0.5058
      9 O           3.4446   -1.2347    0.0000 O.2     1  UNL1       -0.2869
     10 O           4.2986   -5.8040    0.0000 O.3     1  UNL1       -0.5065
     11 C           7.7748    3.2653    0.0000 C.3     1  UNL1        0.1323
     12 C           7.7748    4.2653    0.0000 C.3     1  UNL1        0.0520
     13 C           8.6408    2.7653    0.0000 C.ar    1  UNL1       -0.0032
     14 C           6.0427    4.2653    0.0000 C.ar    1  UNL1        0.1007
     15 C           6.9088    4.7653    0.0000 C.2     1  UNL1        0.1740
     16 C           6.0427    3.2653    0.0000 C.ar    1  UNL1        0.1389
     17 C           8.6408    1.7653    0.0000 C.ar    1  UNL1       -0.0090
     18 C           9.5068    3.2653    0.0000 C.ar    1  UNL1       -0.0514
     19 C           5.1488    4.7999    0.0000 C.ar    1  UNL1        0.1343
     20 C           5.1488    2.7306    0.0000 C.ar    1  UNL1        0.0227
     21 C           9.5068    1.2653    0.0000 C.ar    1  UNL1        0.1700
     22 C           4.2427    3.2444    0.0000 C.ar    1  UNL1        0.1271
     23 C           4.2427    4.2861    0.0000 C.ar    1  UNL1        0.0225
     24 C          10.3728    2.7653    0.0000 C.ar    1  UNL1       -0.0161
     25 C          10.3728    1.7653    0.0000 C.ar    1  UNL1        0.1591
     26 C           8.6408   -0.2347    0.0000 C.ar    1  UNL1        0.1287
     27 C           6.9088   -1.2347    0.0000 C.ar    1  UNL1        0.0176
     28 C           6.0427   -1.7347    0.0000 C.ar    1  UNL1        0.1392
     29 C           4.3107   -2.7347    0.0000 C.ar    1  UNL1        0.1055
     30 C           5.1767   -3.2347    0.0000 C.ar    1  UNL1        0.1462
     31 C           7.7748    0.2653    0.0000 C.ar    1  UNL1       -0.0187
     32 C           8.6408   -1.2347    0.0000 C.ar    1  UNL1       -0.0187
     33 C           6.9088   -0.2347    0.0000 C.ar    1  UNL1       -0.0476
     34 C           7.7748   -1.7347    0.0000 C.ar    1  UNL1       -0.0476
     35 C           5.1767   -1.2347    0.0000 C.ar    1  UNL1        0.0288
     36 C           4.3107   -1.7347    0.0000 C.ar    1  UNL1        0.1966
     37 C           3.4007   -3.2416    0.0000 C.ar    1  UNL1        0.1347
     38 C           5.1928   -4.2762    0.0000 C.ar    1  UNL1        0.0231
     39 C           2.5107    3.2378    0.0000 C.3     1  UNL1        0.0788
     40 C           4.2947   -4.8040    0.0000 C.ar    1  UNL1        0.1239
     41 C           3.3926   -4.2832    0.0000 C.ar    1  UNL1        0.0223
     42 H           7.7748    2.6453    0.0000 H       1  UNL1        0.0789
     43 H           8.3854    4.1576    0.0000 H       1  UNL1        0.0385
     44 H           7.9868    4.8479    0.0000 H       1  UNL1        0.0385
     45 H           8.1039    1.4553    0.0000 H       1  UNL1        0.0659
     46 H           9.5068    3.8853    0.0000 H       1  UNL1        0.0623
     47 H           5.1560    2.1106    0.0000 H       1  UNL1        0.0691
     48 H           3.7070    4.5982    0.0000 H       1  UNL1        0.0691
     49 H          10.9098    3.0753    0.0000 H       1  UNL1        0.0655
     50 H           4.6270    6.1161    0.0000 H       1  UNL1        0.2922
     51 H           7.7748    0.8853    0.0000 H       1  UNL1        0.0654
     52 H           9.1777   -1.5447    0.0000 H       1  UNL1        0.0654
     53 H           6.3718    0.0753    0.0000 H       1  UNL1        0.0626
     54 H           7.7748   -2.3547    0.0000 H       1  UNL1        0.0626
     55 H           5.1767   -0.6147    0.0000 H       1  UNL1        0.0693
     56 H          11.7758    1.5753    0.0000 H       1  UNL1        0.2923
     57 H           5.7332   -4.5800    0.0000 H       1  UNL1        0.0691
     58 H           2.8545   -4.5911    0.0000 H       1  UNL1        0.0691
     59 H           2.8186    3.7759    0.0000 H       1  UNL1        0.0660
     60 H           1.9726    3.5457    0.0000 H       1  UNL1        0.0660
     61 H           2.2028    2.6996    0.0000 H       1  UNL1        0.0660
     62 H           2.0000   -3.0354    0.0000 H       1  UNL1        0.2922
     63 H           3.7628   -6.1161    0.0000 H       1  UNL1        0.2921
@<TRIPOS>BOND
     1     1    11    1
     2     1    16    1
     3     2    15    2
     4     3    21    1
     5     3    26    1
     6     4    19    1
     7     4    50    1
     8     5    22    1
     9     5    39    1
    10     6    25    1
    11     6    56    1
    12     7    28   ar
    13     7    30   ar
    14     8    37    1
    15     8    62    1
    16     9    36    2
    17    10    40    1
    18    10    63    1
    19    11    12    1
    20    11    13    1
    21    11    42    1
    22    12    15    1
    23    12    43    1
    24    12    44    1
    25    13    17   ar
    26    13    18   ar
    27    14    15    1
    28    14    16   ar
    29    14    19   ar
    30    16    20   ar
    31    17    21   ar
    32    17    45    1
    33    18    24   ar
    34    18    46    1
    35    19    23   ar
    36    20    22   ar
    37    20    47    1
    38    21    25   ar
    39    22    23   ar
    40    23    48    1
    41    24    25   ar
    42    24    49    1
    43    26    31   ar
    44    26    32   ar
    45    27    28    1
    46    27    33   ar
    47    27    34   ar
    48    28    35   ar
    49    29    30   ar
    50    29    36   ar
    51    29    37   ar
    52    30    38   ar
    53    31    33   ar
    54    31    51    1
    55    32    34   ar
    56    32    52    1
    57    33    53    1
    58    34    54    1
    59    35    36   ar
    60    35    55    1
    61    37    41   ar
    62    38    40   ar
    63    38    57    1
    64    39    59    1
    65    39    60    1
    66    39    61    1
    67    40    41   ar
    68    41    58    1
