@<TRIPOS>MOLECULE
IMPHY002354
 24 29 0 0 0
SMALL
GASTEIGER

@<TRIPOS>ATOM
      1 C           4.0801    1.7306    0.0000 C.2     1  UNL1        0.0478
      2 C           3.0799    1.7306    0.0000 C.ar    1  UNL1        0.0126
      3 N           4.5803    2.5971    0.0000 N.pl3   1  UNL1       -0.3032
      4 C           4.5803    0.8641    0.0000 C.2     1  UNL1        0.0144
      5 C           2.5798    2.5971    0.0000 C.ar    1  UNL1       -0.0161
      6 C           2.5798    0.8641    0.0000 C.ar    1  UNL1        0.0411
      7 C           5.5805    2.5971    0.0000 C.3     1  UNL1        0.1208
      8 C           4.0801    3.4637    0.0000 C.3     1  UNL1        0.0958
      9 C           5.5805    0.8641    0.0000 C.ar    1  UNL1        0.0020
     10 C           1.5820    2.5971    0.0000 C.ar    1  UNL1        0.0360
     11 C           3.0799    3.4637    0.0000 C.3     1  UNL1        0.0479
     12 C           1.5820    0.8641    0.0000 C.ar    1  UNL1        0.1764
     13 C           6.0806    1.7306    0.0000 C.ar    1  UNL1        0.0348
     14 C           6.0806    0.0000    0.0000 C.ar    1  UNL1        0.0031
     15 C           1.0819    1.7306    0.0000 C.ar    1  UNL1        0.1761
     16 O           0.9111    0.1213    0.0000 O.3     1  UNL1       -0.4346
     17 C           7.0808    1.7306    0.0000 C.ar    1  UNL1        0.1740
     18 C           7.0808    0.0000    0.0000 C.ar    1  UNL1        0.0402
     19 O           0.1040    1.5226    0.0000 O.3     1  UNL1       -0.4346
     20 C           0.0000    0.5273    0.0000 C.3     1  UNL1        0.4294
     21 C           7.5809    0.8641    0.0000 C.ar    1  UNL1        0.1762
     22 O           7.7493    2.4733    0.0000 O.3     1  UNL1       -0.4349
     23 O           8.5589    1.0720    0.0000 O.3     1  UNL1       -0.4346
     24 C           8.6653    2.0673    0.0000 C.3     1  UNL1        0.4294
@<TRIPOS>BOND
     1     1     2    1
     2     1     3    1
     3     1     4    2
     4     2     5   ar
     5     2     6   ar
     6     3     7    1
     7     3     8    1
     8     4     9    1
     9     5    10   ar
    10     5    11    1
    11     6    12   ar
    12     7    13    1
    13     8    11    1
    14     9    13   ar
    15     9    14   ar
    16    10    15   ar
    17    12    15   ar
    18    12    16    1
    19    13    17   ar
    20    14    18   ar
    21    15    19    1
    22    16    20    1
    23    17    21   ar
    24    17    22    1
    25    18    21   ar
    26    19    20    1
    27    21    23    1
    28    22    24    1
    29    23    24    1
