@<TRIPOS>MOLECULE
IMPHY006052
 44 44 0 0 0
SMALL
GASTEIGER

@<TRIPOS>ATOM
      1 O           5.4641    1.3450    0.0000 O.3     1  UNL1       -0.3861
      2 O           2.8660    1.8450    0.0000 O.3     1  UNL1       -0.3851
      3 O           4.5981    3.8450    0.0000 O.3     1  UNL1       -0.3865
      4 C           2.8660   -1.1550    0.0000 C.3     1  UNL1       -0.0164
      5 C           2.0000   -1.6550    0.0000 C.3     1  UNL1       -0.0426
      6 C           3.7320   -1.6550    0.0000 C.3     1  UNL1       -0.0280
      7 C           2.8660   -0.1550    0.0000 C.2     1  UNL1       -0.0707
      8 C           2.0000   -2.6550    0.0000 C.3     1  UNL1       -0.0315
      9 C           4.5981    1.8450    0.0000 C.3     1  UNL1        0.1126
     10 C           3.7320    1.3450    0.0000 C.3     1  UNL1        0.1021
     11 C           4.5981    2.8450    0.0000 C.3     1  UNL1        0.0890
     12 C           2.8660   -3.1550    0.0000 C.2     1  UNL1       -0.0765
     13 C           3.7320    0.3450    0.0000 C.2     1  UNL1       -0.0541
     14 C           3.7320   -2.6550    0.0000 C.2     1  UNL1       -0.0845
     15 C           2.0000    0.3450    0.0000 C.3     1  UNL1       -0.0434
     16 C           5.5981    2.8450    0.0000 C.3     1  UNL1       -0.0338
     17 C           3.5981    2.8450    0.0000 C.3     1  UNL1       -0.0338
     18 C           2.8660   -4.1550    0.0000 C.3     1  UNL1       -0.0438
     19 H           3.4030   -0.8450    0.0000 H       1  UNL1        0.0349
     20 H           1.7880   -1.0724    0.0000 H       1  UNL1        0.0274
     21 H           1.3894   -1.7627    0.0000 H       1  UNL1        0.0274
     22 H           4.3426   -1.7627    0.0000 H       1  UNL1        0.0313
     23 H           3.9441   -1.0724    0.0000 H       1  UNL1        0.0313
     24 H           1.3894   -2.5473    0.0000 H       1  UNL1        0.0310
     25 H           1.7880   -3.2376    0.0000 H       1  UNL1        0.0310
     26 H           4.5981    1.2250    0.0000 H       1  UNL1        0.0651
     27 H           3.7320    1.9650    0.0000 H       1  UNL1        0.0665
     28 H           4.2690    0.0350    0.0000 H       1  UNL1        0.0598
     29 H           4.2690   -2.9650    0.0000 H       1  UNL1        0.0572
     30 H           2.3100    0.8819    0.0000 H       1  UNL1        0.0274
     31 H           1.4631    0.6550    0.0000 H       1  UNL1        0.0274
     32 H           1.6900   -0.1919    0.0000 H       1  UNL1        0.0274
     33 H           5.5981    2.2250    0.0000 H       1  UNL1        0.0258
     34 H           6.2181    2.8450    0.0000 H       1  UNL1        0.0258
     35 H           5.5981    3.4650    0.0000 H       1  UNL1        0.0258
     36 H           3.5981    3.4650    0.0000 H       1  UNL1        0.0258
     37 H           2.9781    2.8450    0.0000 H       1  UNL1        0.0258
     38 H           3.5981    2.2250    0.0000 H       1  UNL1        0.0258
     39 H           2.2460   -4.1550    0.0000 H       1  UNL1        0.0274
     40 H           2.8660   -4.7750    0.0000 H       1  UNL1        0.0274
     41 H           3.4860   -4.1550    0.0000 H       1  UNL1        0.0274
     42 H           6.0010    1.6550    0.0000 H       1  UNL1        0.2100
     43 H           2.8660    2.4650    0.0000 H       1  UNL1        0.2103
     44 H           5.1350    4.1550    0.0000 H       1  UNL1        0.2102
@<TRIPOS>BOND
     1     9     1    1
     2     1    42    1
     3    10     2    1
     4     2    43    1
     5     3    11    1
     6     3    44    1
     7     4     5    1
     8     4     6    1
     9     4     7    1
    10     4    19    1
    11     5     8    1
    12     5    20    1
    13     5    21    1
    14     6    14    1
    15     6    22    1
    16     6    23    1
    17     7    13    2
    18     7    15    1
    19     8    12    1
    20     8    24    1
    21     8    25    1
    22     9    10    1
    23     9    11    1
    24     9    26    1
    25    10    13    1
    26    10    27    1
    27    11    16    1
    28    11    17    1
    29    12    14    2
    30    12    18    1
    31    13    28    1
    32    14    29    1
    33    15    30    1
    34    15    31    1
    35    15    32    1
    36    16    33    1
    37    16    34    1
    38    16    35    1
    39    17    36    1
    40    17    37    1
    41    17    38    1
    42    18    39    1
    43    18    40    1
    44    18    41    1
