@<TRIPOS>MOLECULE
IMPHY008518
 94 97 0 0 0
SMALL
GASTEIGER

@<TRIPOS>ATOM
      1 CL          6.3728    1.0146    0.0000 Cl      1  UNL1       -0.0778
      2 O           5.1795    0.1482    0.0000 O.3     1  UNL1       -0.3608
      3 O           5.0778   -1.3548    0.0000 O.3     1  UNL1       -0.4566
      4 O           3.8962    2.8896    0.0000 O.3     1  UNL1       -0.4465
      5 O           5.6283    4.8896    0.0000 O.3     1  UNL1       -0.3686
      6 O           6.9169    5.2959    0.0000 O.3     1  UNL1       -0.3712
      7 O           7.8038   -2.6074    0.0000 O.2     1  UNL1       -0.2751
      8 O           3.0302    4.3896    0.0000 O.2     1  UNL1       -0.2264
      9 O           6.0084   -2.8156    0.0000 O.2     1  UNL1       -0.2487
     10 O           2.5912   -3.9658    0.0000 O.2     1  UNL1       -0.2759
     11 O           6.3728    2.0371    0.0000 O.3     1  UNL1       -0.4936
     12 N           4.7622    4.3896    0.0000 N.am    1  UNL1       -0.2504
     13 N           8.1283   -0.9764    0.0000 N.am    1  UNL1       -0.2729
     14 N           4.3216   -3.8902    0.0000 N.am    1  UNL1       -0.2916
     15 C           6.1800    0.1484    0.0000 C.3     1  UNL1        0.1306
     16 C           5.6800    1.0144    0.0000 C.3     1  UNL1        0.0977
     17 C           4.7622    1.3896    0.0000 C.3     1  UNL1        0.0226
     18 C           5.9212   -0.8175    0.0000 C.3     1  UNL1        0.1423
     19 C           4.7622    2.3896    0.0000 C.3     1  UNL1        0.1139
     20 C           7.0461   -0.3515    0.0000 C.3     1  UNL1       -0.0298
     21 C           3.7623    1.4027    0.0000 C.3     1  UNL1       -0.0566
     22 C           5.6283    2.8896    0.0000 C.3     1  UNL1        0.0335
     23 C           6.4212   -1.6835    0.0000 C.3     1  UNL1        0.0644
     24 C           5.6283    3.8896    0.0000 C.3     1  UNL1        0.1684
     25 C           6.4943    4.3896    0.0000 C.3     1  UNL1        0.1223
     26 C           7.4212   -1.6835    0.0000 C.2     1  UNL1        0.2232
     27 C           3.8962    3.8896    0.0000 C.2     1  UNL1        0.4027
     28 C           5.1214   -2.3538    0.0000 C.2     1  UNL1        0.3279
     29 C           4.2780   -2.8912    0.0000 C.3     1  UNL1        0.1198
     30 C           7.3603    3.8896    0.0000 C.2     1  UNL1       -0.0513
     31 C           8.1283    0.0236    0.0000 C.ar    1  UNL1        0.0581
     32 C           9.0521   -1.3591    0.0000 C.3     1  UNL1        0.0083
     33 C           3.3910   -2.4294    0.0000 C.3     1  UNL1       -0.0360
     34 C           8.3603    3.8896    0.0000 C.2     1  UNL1       -0.0632
     35 C           7.9131    5.3831    0.0000 C.3     1  UNL1        0.0374
     36 C           8.9943    0.5236    0.0000 C.ar    1  UNL1       -0.0351
     37 C           7.2427    0.5213    0.0000 C.ar    1  UNL1        0.1038
     38 C           5.2086   -4.3519    0.0000 C.3     1  UNL1        0.0040
     39 C           8.8603    3.0236    0.0000 C.2     1  UNL1       -0.0627
     40 C           3.4782   -4.4275    0.0000 C.2     1  UNL1        0.2129
     41 C           8.9943    1.5236    0.0000 C.ar    1  UNL1       -0.0381
     42 C           9.8603    2.0236    0.0000 C.3     1  UNL1       -0.0063
     43 C           9.8603    3.0236    0.0000 C.2     1  UNL1       -0.0683
     44 C           7.2388    1.5371    0.0000 C.ar    1  UNL1        0.1404
     45 C           8.1205    2.0416    0.0000 C.ar    1  UNL1       -0.0149
     46 C           3.5218   -5.4265    0.0000 C.3     1  UNL1        0.0124
     47 C          10.5674    3.7307    0.0000 C.3     1  UNL1       -0.0432
     48 C           6.3728    3.0371    0.0000 C.3     1  UNL1        0.0789
     49 H           6.1052    1.7505    0.0000 H       1  UNL1        0.0630
     50 H           4.3575    0.9199    0.0000 H       1  UNL1        0.0360
     51 H           5.3064   -0.7366    0.0000 H       1  UNL1        0.0769
     52 H           4.0261    1.9646    0.0000 H       1  UNL1        0.0739
     53 H           7.3560    0.1855    0.0000 H       1  UNL1        0.0259
     54 H           7.5830   -0.6614    0.0000 H       1  UNL1        0.0259
     55 H           6.7361   -0.8884    0.0000 H       1  UNL1        0.0259
     56 H           3.7542    0.7828    0.0000 H       1  UNL1        0.0234
     57 H           3.1424    1.4108    0.0000 H       1  UNL1        0.0234
     58 H           3.7704    2.0227    0.0000 H       1  UNL1        0.0234
     59 H           6.2388    2.9973    0.0000 H       1  UNL1        0.0346
     60 H           5.8403    2.3070    0.0000 H       1  UNL1        0.0346
     61 H           6.5288   -2.2941    0.0000 H       1  UNL1        0.0396
     62 H           5.8385   -1.8956    0.0000 H       1  UNL1        0.0396
     63 H           6.3338    4.9885    0.0000 H       1  UNL1        0.0686
     64 H           4.4522    4.9265    0.0000 H       1  UNL1        0.1549
     65 H           5.3183    5.4265    0.0000 H       1  UNL1        0.2121
     66 H           4.8279   -3.1774    0.0000 H       1  UNL1        0.0613
     67 H           7.1998    3.2907    0.0000 H       1  UNL1        0.0599
     68 H           9.2894   -0.7863    0.0000 H       1  UNL1        0.0433
     69 H           9.6249   -1.5964    0.0000 H       1  UNL1        0.0433
     70 H           8.8149   -1.9319    0.0000 H       1  UNL1        0.0433
     71 H           3.1047   -2.9794    0.0000 H       1  UNL1        0.0253
     72 H           2.8410   -2.1431    0.0000 H       1  UNL1        0.0253
     73 H           3.6773   -1.8794    0.0000 H       1  UNL1        0.0253
     74 H           8.6703    4.4265    0.0000 H       1  UNL1        0.0615
     75 H           7.8591    6.0007    0.0000 H       1  UNL1        0.0524
     76 H           8.5307    5.4371    0.0000 H       1  UNL1        0.0524
     77 H           7.9671    4.7654    0.0000 H       1  UNL1        0.0524
     78 H           9.5312    0.2136    0.0000 H       1  UNL1        0.0639
     79 H           5.4949   -3.8020    0.0000 H       1  UNL1        0.0429
     80 H           5.7586   -4.6382    0.0000 H       1  UNL1        0.0429
     81 H           4.9223   -4.9019    0.0000 H       1  UNL1        0.0429
     82 H           8.5503    2.4866    0.0000 H       1  UNL1        0.0617
     83 H          10.4709    2.1312    0.0000 H       1  UNL1        0.0358
     84 H          10.0724    1.4410    0.0000 H       1  UNL1        0.0358
     85 H           8.1253    2.6616    0.0000 H       1  UNL1        0.0657
     86 H           4.1412   -5.3995    0.0000 H       1  UNL1        0.0323
     87 H           3.5489   -6.0460    0.0000 H       1  UNL1        0.0323
     88 H           2.9024   -5.4536    0.0000 H       1  UNL1        0.0323
     89 H          10.1290    4.1691    0.0000 H       1  UNL1        0.0275
     90 H          11.0058    4.1691    0.0000 H       1  UNL1        0.0275
     91 H          11.0058    3.2923    0.0000 H       1  UNL1        0.0275
     92 H           5.7528    3.0371    0.0000 H       1  UNL1        0.0660
     93 H           6.3728    3.6571    0.0000 H       1  UNL1        0.0660
     94 H           6.9928    3.0371    0.0000 H       1  UNL1        0.0660
@<TRIPOS>BOND
     1     1    37    1
     2     2    15    1
     3     2    16    1
     4    18     3    1
     5     3    28    1
     6     4    19    1
     7     4    27    1
     8    24     5    1
     9     5    65    1
    10    25     6    1
    11     6    35    1
    12     7    26    2
    13     8    27    2
    14     9    28    2
    15    10    40    2
    16    11    44    1
    17    11    48    1
    18    12    24    1
    19    12    27   am
    20    12    64    1
    21    13    26   am
    22    13    31    1
    23    13    32    1
    24    29    14    1
    25    14    38    1
    26    14    40   am
    27    15    16    1
    28    15    18    1
    29    15    20    1
    30    16    17    1
    31    16    49    1
    32    17    19    1
    33    17    21    1
    34    17    50    1
    35    18    23    1
    36    18    51    1
    37    19    22    1
    38    19    52    1
    39    20    53    1
    40    20    54    1
    41    20    55    1
    42    21    56    1
    43    21    57    1
    44    21    58    1
    45    22    24    1
    46    22    59    1
    47    22    60    1
    48    23    26    1
    49    23    61    1
    50    23    62    1
    51    24    25    1
    52    25    30    1
    53    25    63    1
    54    28    29    1
    55    29    33    1
    56    29    66    1
    57    30    34    2
    58    30    67    1
    59    31    36   ar
    60    31    37   ar
    61    32    68    1
    62    32    69    1
    63    32    70    1
    64    33    71    1
    65    33    72    1
    66    33    73    1
    67    34    39    1
    68    34    74    1
    69    35    75    1
    70    35    76    1
    71    35    77    1
    72    36    41   ar
    73    36    78    1
    74    37    44   ar
    75    38    79    1
    76    38    80    1
    77    38    81    1
    78    39    43    2
    79    39    82    1
    80    40    46    1
    81    41    42    1
    82    41    45   ar
    83    42    43    1
    84    42    83    1
    85    42    84    1
    86    43    47    1
    87    44    45   ar
    88    45    85    1
    89    46    86    1
    90    46    87    1
    91    46    88    1
    92    47    89    1
    93    47    90    1
    94    47    91    1
    95    48    92    1
    96    48    93    1
    97    48    94    1
