@<TRIPOS>MOLECULE
IMPHY010169
 48 52 0 0 0
SMALL
GASTEIGER

@<TRIPOS>ATOM
      1 O           2.3767    0.2572    0.0000 O.3     1  UNL1       -0.3807
      2 O           2.4318   -1.5384    0.0000 O.co2   1  UNL1       -0.7746
      3 O           2.1153    2.1044    0.0000 O.3     1  UNL1       -0.4522
      4 O           2.9423    3.5627    0.0000 O.3     1  UNL1       -0.4526
      5 O           7.6940   -2.5627    0.0000 O.3     1  UNL1       -0.4914
      6 O           7.6940   -0.5144    0.0000 O.3     1  UNL1       -0.5033
      7 N           3.2978   -1.0385    0.0000 N.3     1  UNL1        0.2251
      8 C           4.1639   -0.5385    0.0000 C.3     1  UNL1        0.0498
      9 C           3.3548    0.0493    0.0000 C.3     1  UNL1        0.1336
     10 C           4.9729    0.0493    0.0000 C.3     1  UNL1        0.0259
     11 C           5.0299   -1.0385    0.0000 C.ar    1  UNL1        0.0133
     12 C           3.2978   -2.0385    0.0000 C.3     1  UNL1       -0.0279
     13 C           3.6639    1.0003    0.0000 C.ar    1  UNL1        0.0357
     14 C           4.6639    1.0003    0.0000 C.ar    1  UNL1       -0.0317
     15 C           4.1639   -2.5385    0.0000 C.3     1  UNL1        0.0132
     16 C           5.0299   -2.0385    0.0000 C.ar    1  UNL1       -0.0298
     17 C           2.4318   -0.5385    0.0000 C.3     1  UNL1       -0.0429
     18 C           5.9238   -0.5039    0.0000 C.ar    1  UNL1       -0.0074
     19 C           3.1292    1.8943    0.0000 C.ar    1  UNL1        0.1723
     20 C           5.1985    1.8943    0.0000 C.ar    1  UNL1       -0.0543
     21 C           5.9238   -2.5732    0.0000 C.ar    1  UNL1       -0.0125
     22 C           3.6430    2.8003    0.0000 C.ar    1  UNL1        0.1666
     23 C           6.8299   -1.0177    0.0000 C.ar    1  UNL1        0.1589
     24 C           4.6847    2.8003    0.0000 C.ar    1  UNL1       -0.0159
     25 C           6.8299   -2.0593    0.0000 C.ar    1  UNL1        0.1615
     26 C           2.0000    3.1334    0.0000 C.3     1  UNL1        0.2332
     27 C           7.6901   -3.5627    0.0000 C.3     1  UNL1        0.0790
     28 H           3.1026   -0.5171    0.0000 H       1  UNL1        0.0709
     29 H           5.2829   -0.4877    0.0000 H       1  UNL1        0.0376
     30 H           5.5393    0.3014    0.0000 H       1  UNL1        0.0376
     31 H           2.6873   -1.9308    0.0000 H       1  UNL1        0.0817
     32 H           3.0858   -2.6211    0.0000 H       1  UNL1        0.0817
     33 H           3.7653   -3.0135    0.0000 H       1  UNL1        0.0365
     34 H           4.5624   -3.0135    0.0000 H       1  UNL1        0.0365
     35 H           2.7418   -0.0016    0.0000 H       1  UNL1        0.0777
     36 H           1.8949   -0.2285    0.0000 H       1  UNL1        0.0777
     37 H           2.1218   -1.0754    0.0000 H       1  UNL1        0.0777
     38 H           5.9167    0.1161    0.0000 H       1  UNL1        0.0660
     39 H           5.8185    1.8871    0.0000 H       1  UNL1        0.0622
     40 H           2.1851    0.8468    0.0000 H       1  UNL1        0.2105
     41 H           5.9167   -3.1931    0.0000 H       1  UNL1        0.0658
     42 H           4.9967    3.3361    0.0000 H       1  UNL1        0.0655
     43 H           1.8037    3.7215    0.0000 H       1  UNL1        0.1166
     44 H           1.3945    3.0000    0.0000 H       1  UNL1        0.1166
     45 H           8.2321   -0.8223    0.0000 H       1  UNL1        0.2923
     46 H           7.0701   -3.5603    0.0000 H       1  UNL1        0.0660
     47 H           7.6878   -4.1826    0.0000 H       1  UNL1        0.0660
     48 H           8.3101   -3.5650    0.0000 H       1  UNL1        0.0660
@<TRIPOS>UNITY_ATOM_ATTR
2 1
charge -1
7 1
charge 1
@<TRIPOS>BOND
     1     9     1    1
     2     1    40    1
     3     2     7    1
     4     3    19    1
     5     3    26    1
     6     4    22    1
     7     4    26    1
     8     5    25    1
     9     5    27    1
    10     6    23    1
    11     6    45    1
    12     7     8    1
    13     7    12    1
    14     7    17    1
    15     8     9    1
    16     8    10    1
    17     8    11    1
    18     9    13    1
    19     9    28    1
    20    10    14    1
    21    10    29    1
    22    10    30    1
    23    11    16   ar
    24    11    18   ar
    25    12    15    1
    26    12    31    1
    27    12    32    1
    28    13    14   ar
    29    13    19   ar
    30    14    20   ar
    31    15    16    1
    32    15    33    1
    33    15    34    1
    34    16    21   ar
    35    17    35    1
    36    17    36    1
    37    17    37    1
    38    18    23   ar
    39    18    38    1
    40    19    22   ar
    41    20    24   ar
    42    20    39    1
    43    21    25   ar
    44    21    41    1
    45    22    24   ar
    46    23    25   ar
    47    24    42    1
    48    26    43    1
    49    26    44    1
    50    27    46    1
    51    27    47    1
    52    27    48    1
