@<TRIPOS>MOLECULE
IMPHY017337
 21 20 0 0 0
SMALL
GASTEIGER

@<TRIPOS>ATOM
      1 O           2.5369    0.4400    0.0000 O.3     1  UNL1       -0.4775
      2 O           3.4030   -1.0600    0.0000 O.2     1  UNL1       -0.2458
      3 C           6.8671   -0.0600    0.0000 C.3     1  UNL1       -0.0499
      4 C           7.7331    0.4400    0.0000 C.3     1  UNL1       -0.0556
      5 C           6.0010    0.4400    0.0000 C.3     1  UNL1       -0.0343
      6 C           8.5991   -0.0600    0.0000 C.3     1  UNL1       -0.0653
      7 C           5.1350   -0.0600    0.0000 C.2     1  UNL1       -0.0773
      8 C           4.2690    0.4400    0.0000 C.2     1  UNL1        0.0184
      9 C           3.4030   -0.0600    0.0000 C.2     1  UNL1        0.3292
     10 H           6.4685   -0.5349    0.0000 H       1  UNL1        0.0268
     11 H           7.2656   -0.5349    0.0000 H       1  UNL1        0.0268
     12 H           8.1316    0.9149    0.0000 H       1  UNL1        0.0263
     13 H           7.3346    0.9149    0.0000 H       1  UNL1        0.0263
     14 H           6.3996    0.9149    0.0000 H       1  UNL1        0.0307
     15 H           5.6025    0.9149    0.0000 H       1  UNL1        0.0307
     16 H           8.2891   -0.5969    0.0000 H       1  UNL1        0.0230
     17 H           9.1360   -0.3700    0.0000 H       1  UNL1        0.0230
     18 H           8.9091    0.4769    0.0000 H       1  UNL1        0.0230
     19 H           5.1350   -0.6800    0.0000 H       1  UNL1        0.0574
     20 H           4.2690    1.0600    0.0000 H       1  UNL1        0.0686
     21 H           2.0000    0.1300    0.0000 H       1  UNL1        0.2954
@<TRIPOS>BOND
     1     1     9    1
     2     1    21    1
     3     2     9    2
     4     3     4    1
     5     3     5    1
     6     3    10    1
     7     3    11    1
     8     4     6    1
     9     4    12    1
    10     4    13    1
    11     5     7    1
    12     5    14    1
    13     5    15    1
    14     6    16    1
    15     6    17    1
    16     6    18    1
    17     7     8    2
    18     7    19    1
    19     8     9    1
    20     8    20    1
