@<TRIPOS>MOLECULE
IMPHY015206
 56 58 0 0 0
SMALL
GASTEIGER

@<TRIPOS>ATOM
      1 O           6.4421    0.0698    0.0000 O.3     1  UNL1       -0.3632
      2 O           2.9176    1.0976    0.0000 O.3     1  UNL1       -0.3912
      3 C           3.8000   -0.4370    0.0000 C.3     1  UNL1        0.0026
      4 C           3.8000   -1.4370    0.0000 C.3     1  UNL1       -0.0277
      5 C           4.6660    0.0630    0.0000 C.3     1  UNL1       -0.0040
      6 C           5.5321   -0.4370    0.0000 C.3     1  UNL1        0.0713
      7 C           2.9061   -1.9717    0.0000 C.3     1  UNL1       -0.0314
      8 C           2.9061    0.0976    0.0000 C.3     1  UNL1        0.0612
      9 C           4.6660   -1.9370    0.0000 C.3     1  UNL1       -0.0465
     10 C           5.5321   -1.4370    0.0000 C.3     1  UNL1       -0.0234
     11 C           4.6500    1.1045    0.0000 C.3     1  UNL1       -0.0441
     12 C           2.0000   -1.4578    0.0000 C.3     1  UNL1       -0.0452
     13 C           2.0000   -0.4162    0.0000 C.3     1  UNL1       -0.0258
     14 C           3.8000    0.5630    0.0000 C.3     1  UNL1       -0.0566
     15 C           5.5480    1.6322    0.0000 C.3     1  UNL1       -0.0200
     16 C           6.4501    1.1114    0.0000 C.3     1  UNL1        0.0853
     17 C           6.3981   -0.9370    0.0000 C.3     1  UNL1       -0.0355
     18 C           2.4161   -2.8434    0.0000 C.3     1  UNL1       -0.0595
     19 C           3.4160   -2.8319    0.0000 C.3     1  UNL1       -0.0595
     20 C           7.4501    1.1076    0.0000 C.3     1  UNL1       -0.0322
     21 C           6.9534    1.9755    0.0000 C.2     1  UNL1       -0.0599
     22 C           6.4568    2.8434    0.0000 C.2     1  UNL1       -0.1000
     23 H           3.8066   -2.2870    0.0000 H       1  UNL1        0.0312
     24 H           5.3989    0.4936    0.0000 H       1  UNL1        0.0335
     25 H           2.3721    0.4128    0.0000 H       1  UNL1        0.0599
     26 H           4.2675   -2.4120    0.0000 H       1  UNL1        0.0269
     27 H           5.0646   -2.4120    0.0000 H       1  UNL1        0.0269
     28 H           5.7441   -2.0196    0.0000 H       1  UNL1        0.0293
     29 H           6.1426   -1.3294    0.0000 H       1  UNL1        0.0293
     30 H           4.4319    1.6849    0.0000 H       1  UNL1        0.0270
     31 H           4.0408    0.9890    0.0000 H       1  UNL1        0.0270
     32 H           1.3891   -1.3518    0.0000 H       1  UNL1        0.0271
     33 H           1.7909   -2.0415    0.0000 H       1  UNL1        0.0271
     34 H           1.7909    0.1675    0.0000 H       1  UNL1        0.0290
     35 H           1.3891   -0.5223    0.0000 H       1  UNL1        0.0290
     36 H           4.4200    0.5630    0.0000 H       1  UNL1        0.0236
     37 H           3.8000    1.1830    0.0000 H       1  UNL1        0.0236
     38 H           3.1800    0.5630    0.0000 H       1  UNL1        0.0236
     39 H           5.9453    2.1082    0.0000 H       1  UNL1        0.0296
     40 H           5.1470    2.1051    0.0000 H       1  UNL1        0.0296
     41 H           6.0881   -1.4740    0.0000 H       1  UNL1        0.0257
     42 H           6.9350   -1.2470    0.0000 H       1  UNL1        0.0257
     43 H           6.7081   -0.4001    0.0000 H       1  UNL1        0.0257
     44 H           1.8756   -2.5397    0.0000 H       1  UNL1        0.0235
     45 H           2.1123   -3.3839    0.0000 H       1  UNL1        0.0235
     46 H           2.9566   -3.1472    0.0000 H       1  UNL1        0.0235
     47 H           2.8827   -3.1481    0.0000 H       1  UNL1        0.0235
     48 H           3.7322   -3.3652    0.0000 H       1  UNL1        0.0235
     49 H           3.9494   -2.5157    0.0000 H       1  UNL1        0.0235
     50 H           2.3843    1.4138    0.0000 H       1  UNL1        0.2098
     51 H           7.4477    0.4876    0.0000 H       1  UNL1        0.0260
     52 H           8.0701    1.1052    0.0000 H       1  UNL1        0.0260
     53 H           7.4525    1.7276    0.0000 H       1  UNL1        0.0260
     54 H           7.5734    1.9731    0.0000 H       1  UNL1        0.0594
     55 H           6.7688    3.3792    0.0000 H       1  UNL1        0.0533
     56 H           5.8368    2.8458    0.0000 H       1  UNL1        0.0533
@<TRIPOS>BOND
     1     1     6    1
     2     1    16    1
     3     8     2    1
     4     2    50    1
     5     3     4    1
     6     3     5    1
     7     3     8    1
     8     3    14    1
     9     4     7    1
    10     4     9    1
    11     4    23    1
    12     5     6    1
    13     5    11    1
    14     5    24    1
    15     6    10    1
    16     6    17    1
    17     7    12    1
    18     7    18    1
    19     7    19    1
    20     8    13    1
    21     8    25    1
    22     9    10    1
    23     9    26    1
    24     9    27    1
    25    10    28    1
    26    10    29    1
    27    11    15    1
    28    11    30    1
    29    11    31    1
    30    12    13    1
    31    12    32    1
    32    12    33    1
    33    13    34    1
    34    13    35    1
    35    14    36    1
    36    14    37    1
    37    14    38    1
    38    15    16    1
    39    15    39    1
    40    15    40    1
    41    16    20    1
    42    16    21    1
    43    17    41    1
    44    17    42    1
    45    17    43    1
    46    18    44    1
    47    18    45    1
    48    18    46    1
    49    19    47    1
    50    19    48    1
    51    19    49    1
    52    20    51    1
    53    20    52    1
    54    20    53    1
    55    21    22    2
    56    21    54    1
    57    22    55    1
    58    22    56    1
