@<TRIPOS>MOLECULE
IMPHY009926
 89 94 0 0 0
SMALL
GASTEIGER

@<TRIPOS>ATOM
      1 O           7.5330    1.0298    0.0000 O.3     1  UNL1       -0.3715
      2 O           7.6464    3.4262    0.0000 O.2     1  UNL1       -0.2967
      3 O           2.1233   -2.8062    0.0000 O.3     1  UNL1       -0.3912
      4 O          11.8158    1.7656    0.0000 O.3     1  UNL1       -0.3540
      5 O          11.8091    0.0336    0.0000 O.3     1  UNL1       -0.3540
      6 C           6.7804    0.9262    0.0000 C.3     1  UNL1        0.0096
      7 C           7.6464    0.4262    0.0000 C.3     1  UNL1        0.0796
      8 C           5.8704    0.4193    0.0000 C.3     1  UNL1       -0.0203
      9 C           5.8623   -0.6223    0.0000 C.3     1  UNL1       -0.0293
     10 C           8.5124    0.9262    0.0000 C.3     1  UNL1        0.0038
     11 C           8.5124    1.9262    0.0000 C.3     1  UNL1        0.0577
     12 C           4.9269   -1.1720    0.0000 C.3     1  UNL1       -0.0252
     13 C           7.6624   -0.6153    0.0000 C.3     1  UNL1       -0.0226
     14 C           3.9873   -0.6295    0.0000 C.3     1  UNL1       -0.0278
     15 C           6.7644   -1.1431    0.0000 C.3     1  UNL1       -0.0466
     16 C           6.7804    1.9262    0.0000 C.3     1  UNL1        0.0150
     17 C           4.9435    0.9834    0.0000 C.3     1  UNL1       -0.0465
     18 C           9.4064    0.3915    0.0000 C.3     1  UNL1       -0.0366
     19 C           3.9956    0.4555    0.0000 C.3     1  UNL1       -0.0486
     20 C           7.9330    1.7226    0.0000 C.3     1  UNL1        0.0611
     21 C           7.6464    2.4262    0.0000 C.2     1  UNL1        0.1426
     22 C           6.1376    1.6922    0.0000 C.3     1  UNL1       -0.0560
     23 C           9.4064    2.4609    0.0000 C.3     1  UNL1       -0.0375
     24 C           2.9999   -1.1794    0.0000 C.3     1  UNL1       -0.0056
     25 C           5.5356    1.3616    0.0000 C.3     1  UNL1       -0.0587
     26 C           4.9443   -2.3020    0.0000 C.3     1  UNL1       -0.0447
     27 C          10.3124    0.9054    0.0000 C.3     1  UNL1        0.0193
     28 C          10.3124    1.9470    0.0000 C.3     1  UNL1       -0.0420
     29 C           5.7929   -1.6720    0.0000 C.3     1  UNL1       -0.0590
     30 C           2.9912   -2.3095    0.0000 C.3     1  UNL1        0.0606
     31 C           3.9700   -2.8746    0.0000 C.3     1  UNL1       -0.0258
     32 C          11.3124    0.9015    0.0000 C.3     1  UNL1        0.1637
     33 C           2.0000   -1.1678    0.0000 C.3     1  UNL1       -0.0572
     34 C           2.5100   -0.3077    0.0000 C.3     1  UNL1       -0.0572
     35 C          10.8091    0.0374    0.0000 C.3     1  UNL1       -0.0549
     36 C          12.8157    1.7618    0.0000 C.3     1  UNL1        0.0395
     37 C          12.8091    0.0297    0.0000 C.3     1  UNL1        0.0395
     38 H           5.8656   -1.4722    0.0000 H       1  UNL1        0.0312
     39 H           8.5124    0.0762    0.0000 H       1  UNL1        0.0339
     40 H           7.8805   -1.1957    0.0000 H       1  UNL1        0.0293
     41 H           8.2716   -0.4998    0.0000 H       1  UNL1        0.0293
     42 H           3.2561   -0.1960    0.0000 H       1  UNL1        0.0312
     43 H           6.3671   -1.6190    0.0000 H       1  UNL1        0.0269
     44 H           7.1654   -1.6160    0.0000 H       1  UNL1        0.0269
     45 H           6.5683    2.5088    0.0000 H       1  UNL1        0.0348
     46 H           6.1698    1.8185    0.0000 H       1  UNL1        0.0348
     47 H           5.3517    1.4501    0.0000 H       1  UNL1        0.0271
     48 H           4.5536    1.4655    0.0000 H       1  UNL1        0.0271
     49 H           9.0018   -0.0783    0.0000 H       1  UNL1        0.0276
     50 H           9.8000   -0.0875    0.0000 H       1  UNL1        0.0276
     51 H           3.7911    1.0408    0.0000 H       1  UNL1        0.0268
     52 H           3.3840    0.3541    0.0000 H       1  UNL1        0.0268
     53 H           7.9016    2.3418    0.0000 H       1  UNL1        0.0570
     54 H           7.3302    1.8678    0.0000 H       1  UNL1        0.0570
     55 H           6.6125    2.0908    0.0000 H       1  UNL1        0.0236
     56 H           5.7390    2.1672    0.0000 H       1  UNL1        0.0236
     57 H           5.6626    1.2937    0.0000 H       1  UNL1        0.0236
     58 H           9.8000    2.9399    0.0000 H       1  UNL1        0.0276
     59 H           9.0018    2.9306    0.0000 H       1  UNL1        0.0276
     60 H           6.1198    1.5692    0.0000 H       1  UNL1        0.0235
     61 H           5.3280    1.9459    0.0000 H       1  UNL1        0.0235
     62 H           4.9514    1.1541    0.0000 H       1  UNL1        0.0235
     63 H           5.1624   -2.8824    0.0000 H       1  UNL1        0.0271
     64 H           5.5535   -2.1865    0.0000 H       1  UNL1        0.0271
     65 H          10.9233    1.8409    0.0000 H       1  UNL1        0.0272
     66 H          10.5215    2.5307    0.0000 H       1  UNL1        0.0272
     67 H           5.4829   -2.2089    0.0000 H       1  UNL1        0.0235
     68 H           6.3299   -1.9820    0.0000 H       1  UNL1        0.0235
     69 H           6.1029   -1.1350    0.0000 H       1  UNL1        0.0235
     70 H           2.4561   -1.9964    0.0000 H       1  UNL1        0.0599
     71 H           3.5727   -3.3506    0.0000 H       1  UNL1        0.0290
     72 H           4.3709   -3.3475    0.0000 H       1  UNL1        0.0290
     73 H          11.0045    1.4397    0.0000 H       1  UNL1        0.0915
     74 H           2.0072   -0.5479    0.0000 H       1  UNL1        0.0236
     75 H           1.3800   -1.1607    0.0000 H       1  UNL1        0.0236
     76 H           1.9928   -1.7878    0.0000 H       1  UNL1        0.0236
     77 H           3.0505   -0.0039    0.0000 H       1  UNL1        0.0236
     78 H           2.2062    0.2328    0.0000 H       1  UNL1        0.0236
     79 H           1.9695   -0.6114    0.0000 H       1  UNL1        0.0236
     80 H          10.2710   -0.2705    0.0000 H       1  UNL1        0.0237
     81 H          11.1170   -0.5007    0.0000 H       1  UNL1        0.0237
     82 H          11.3472    0.3454    0.0000 H       1  UNL1        0.0237
     83 H           2.1209   -3.4262    0.0000 H       1  UNL1        0.2098
     84 H          12.8134    1.1418    0.0000 H       1  UNL1        0.0525
     85 H          13.4357    1.7594    0.0000 H       1  UNL1        0.0525
     86 H          12.8181    2.3817    0.0000 H       1  UNL1        0.0525
     87 H          12.8067   -0.5903    0.0000 H       1  UNL1        0.0525
     88 H          13.4291    0.0273    0.0000 H       1  UNL1        0.0525
     89 H          12.8115    0.6497    0.0000 H       1  UNL1        0.0525
@<TRIPOS>BOND
     1     1     7    1
     2     1    20    1
     3     2    21    2
     4    30     3    1
     5     3    83    1
     6     4    32    1
     7     4    36    1
     8     5    32    1
     9     5    37    1
    10     6     7    1
    11     6     8    1
    12     6    16    1
    13     6    22    1
    14     7    10    1
    15     7    13    1
    16     8     9    1
    17     8    17    1
    18     8    25    1
    19     9    12    1
    20     9    15    1
    21     9    38    1
    22    10    11    1
    23    10    18    1
    24    10    39    1
    25    11    20    1
    26    11    21    1
    27    11    23    1
    28    12    14    1
    29    12    26    1
    30    12    29    1
    31    13    15    1
    32    13    40    1
    33    13    41    1
    34    14    19    1
    35    14    24    1
    36    14    42    1
    37    15    43    1
    38    15    44    1
    39    16    21    1
    40    16    45    1
    41    16    46    1
    42    17    19    1
    43    17    47    1
    44    17    48    1
    45    18    27    1
    46    18    49    1
    47    18    50    1
    48    19    51    1
    49    19    52    1
    50    20    53    1
    51    20    54    1
    52    22    55    1
    53    22    56    1
    54    22    57    1
    55    23    28    1
    56    23    58    1
    57    23    59    1
    58    24    30    1
    59    24    33    1
    60    24    34    1
    61    25    60    1
    62    25    61    1
    63    25    62    1
    64    26    31    1
    65    26    63    1
    66    26    64    1
    67    27    28    1
    68    27    32    1
    69    27    35    1
    70    28    65    1
    71    28    66    1
    72    29    67    1
    73    29    68    1
    74    29    69    1
    75    30    31    1
    76    30    70    1
    77    31    71    1
    78    31    72    1
    79    32    73    1
    80    33    74    1
    81    33    75    1
    82    33    76    1
    83    34    77    1
    84    34    78    1
    85    34    79    1
    86    35    80    1
    87    35    81    1
    88    35    82    1
    89    36    84    1
    90    36    85    1
    91    36    86    1
    92    37    87    1
    93    37    88    1
    94    37    89    1
