@<TRIPOS>MOLECULE
IMPHY012360
 67 72 0 0 0
SMALL
GASTEIGER

@<TRIPOS>ATOM
      1 O           6.0427   -1.2143    0.0000 O.3     1  UNL1       -0.4822
      2 O           6.9367    1.2510    0.0000 O.3     1  UNL1       -0.4799
      3 O           8.7068    3.3098    0.0000 O.3     1  UNL1       -0.3798
      4 O           3.4446    0.2857    0.0000 O.2     1  UNL1       -0.2910
      5 O           3.4446    1.2857    0.0000 O.3     1  UNL1       -0.5062
      6 O           5.1767    4.2857    0.0000 O.3     1  UNL1       -0.5058
      7 O           6.9251    4.3202    0.0000 O.2     1  UNL1       -0.2889
      8 O           2.5405   -1.2112    0.0000 O.3     1  UNL1       -0.5058
      9 O           4.2986   -4.2836    0.0000 O.3     1  UNL1       -0.5065
     10 O           9.5068   -2.2143    0.0000 O.3     1  UNL1       -0.5068
     11 O          11.3068    1.7515    0.0000 O.3     1  UNL1       -0.5033
     12 O          11.2991   -0.2485    0.0000 O.3     1  UNL1       -0.4915
     13 C           5.1767    0.2857    0.0000 C.3     1  UNL1        0.0953
     14 C           6.0427   -0.2143    0.0000 C.3     1  UNL1        0.1392
     15 C           5.1767    1.2857    0.0000 C.ar    1  UNL1        0.0510
     16 C           6.0427    1.7857    0.0000 C.ar    1  UNL1        0.1431
     17 C           4.3107   -0.2143    0.0000 C.2     1  UNL1        0.1816
     18 C           7.8427    1.7648    0.0000 C.3     1  UNL1        0.1582
     19 C           6.0427    2.7857    0.0000 C.ar    1  UNL1        0.1036
     20 C           7.8427    2.8065    0.0000 C.3     1  UNL1        0.1585
     21 C           6.9088   -0.7143    0.0000 C.ar    1  UNL1       -0.0061
     22 C           4.3107   -1.2143    0.0000 C.ar    1  UNL1        0.1013
     23 C           4.3107    1.7857    0.0000 C.ar    1  UNL1        0.1278
     24 C           6.9367    3.3203    0.0000 C.2     1  UNL1        0.2024
     25 C           5.1767   -1.7143    0.0000 C.ar    1  UNL1        0.1389
     26 C           5.1767    3.2857    0.0000 C.ar    1  UNL1        0.1344
     27 C           8.7068    1.2615    0.0000 C.ar    1  UNL1       -0.0007
     28 C           4.3107    2.7857    0.0000 C.ar    1  UNL1        0.0225
     29 C           3.4007   -1.7212    0.0000 C.ar    1  UNL1        0.1343
     30 C           7.7748   -0.2143    0.0000 C.ar    1  UNL1       -0.0516
     31 C           6.9088   -1.7143    0.0000 C.ar    1  UNL1       -0.0516
     32 C           5.1928   -2.7558    0.0000 C.ar    1  UNL1        0.0225
     33 C           9.5748    1.7582    0.0000 C.ar    1  UNL1       -0.0098
     34 C           8.7030    0.2615    0.0000 C.ar    1  UNL1       -0.0513
     35 C           3.3926   -2.7628    0.0000 C.ar    1  UNL1        0.0222
     36 C           4.2947   -3.2836    0.0000 C.ar    1  UNL1        0.1238
     37 C           8.6408   -0.7143    0.0000 C.ar    1  UNL1       -0.0198
     38 C           7.7748   -2.2143    0.0000 C.ar    1  UNL1       -0.0198
     39 C           8.6408   -1.7143    0.0000 C.ar    1  UNL1        0.1169
     40 C          10.4389    1.2548    0.0000 C.ar    1  UNL1        0.1588
     41 C           9.5671   -0.2418    0.0000 C.ar    1  UNL1       -0.0159
     42 C          10.4350    0.2548    0.0000 C.ar    1  UNL1        0.1613
     43 C          11.2952   -1.2485    0.0000 C.3     1  UNL1        0.0790
     44 H           5.9128    0.7107    0.0000 H       1  UNL1        0.0472
     45 H           6.3527    0.3226    0.0000 H       1  UNL1        0.0795
     46 H           8.3803    2.0738    0.0000 H       1  UNL1        0.0815
     47 H           8.3803    2.4975    0.0000 H       1  UNL1        0.0718
     48 H           3.7737    3.0957    0.0000 H       1  UNL1        0.0691
     49 H           7.7748    0.4057    0.0000 H       1  UNL1        0.0623
     50 H           6.3718   -2.0243    0.0000 H       1  UNL1        0.0623
     51 H           5.7332   -3.0596    0.0000 H       1  UNL1        0.0691
     52 H           9.5772    2.3782    0.0000 H       1  UNL1        0.0659
     53 H           8.1648   -0.0464    0.0000 H       1  UNL1        0.0623
     54 H           8.7044    3.9298    0.0000 H       1  UNL1        0.2105
     55 H           2.8545   -3.0707    0.0000 H       1  UNL1        0.0691
     56 H           2.9077    1.5957    0.0000 H       1  UNL1        0.2921
     57 H           9.1777   -0.4043    0.0000 H       1  UNL1        0.0654
     58 H           7.7748   -2.8343    0.0000 H       1  UNL1        0.0654
     59 H           4.6398    4.5957    0.0000 H       1  UNL1        0.2922
     60 H           9.5647   -0.8618    0.0000 H       1  UNL1        0.0655
     61 H           2.0000   -1.5150    0.0000 H       1  UNL1        0.2922
     62 H           3.7628   -4.5957    0.0000 H       1  UNL1        0.2921
     63 H          10.0438   -1.9043    0.0000 H       1  UNL1        0.2921
     64 H          11.8425    1.4394    0.0000 H       1  UNL1        0.2923
     65 H          10.6752   -1.2461    0.0000 H       1  UNL1        0.0660
     66 H          11.2929   -1.8685    0.0000 H       1  UNL1        0.0660
     67 H          11.9152   -1.2509    0.0000 H       1  UNL1        0.0660
@<TRIPOS>BOND
     1     1    14    1
     2     1    25    1
     3     2    16    1
     4     2    18    1
     5    20     3    1
     6     3    54    1
     7     4    17    2
     8     5    23    1
     9     5    56    1
    10     6    26    1
    11     6    59    1
    12     7    24    2
    13     8    29    1
    14     8    61    1
    15     9    36    1
    16     9    62    1
    17    10    39    1
    18    10    63    1
    19    11    40    1
    20    11    64    1
    21    12    42    1
    22    12    43    1
    23    13    14    1
    24    13    15    1
    25    13    17    1
    26    13    44    1
    27    14    21    1
    28    14    45    1
    29    15    16   ar
    30    15    23   ar
    31    16    19   ar
    32    17    22    1
    33    18    20    1
    34    18    27    1
    35    18    46    1
    36    19    24    1
    37    19    26   ar
    38    20    24    1
    39    20    47    1
    40    21    30   ar
    41    21    31   ar
    42    22    25   ar
    43    22    29   ar
    44    23    28   ar
    45    25    32   ar
    46    26    28   ar
    47    27    33   ar
    48    27    34   ar
    49    28    48    1
    50    29    35   ar
    51    30    37   ar
    52    30    49    1
    53    31    38   ar
    54    31    50    1
    55    32    36   ar
    56    32    51    1
    57    33    40   ar
    58    33    52    1
    59    34    41   ar
    60    34    53    1
    61    35    36   ar
    62    35    55    1
    63    37    39   ar
    64    37    57    1
    65    38    39   ar
    66    38    58    1
    67    40    42   ar
    68    41    42   ar
    69    41    60    1
    70    43    65    1
    71    43    66    1
    72    43    67    1
