@<TRIPOS>MOLECULE
IMPHY010809
 87 93 0 0 0
SMALL
GASTEIGER

@<TRIPOS>ATOM
      1 O           6.3406    1.2758    0.0000 O.3     1  UNL1       -0.4482
      2 O           9.8338    3.2906    0.0000 O.3     1  UNL1       -0.4910
      3 O           6.8896    3.7303    0.0000 O.3     1  UNL1       -0.4884
      4 O           8.0997    4.2918    0.0000 O.3     1  UNL1       -0.4884
      5 O           5.0679   -2.9296    0.0000 O.3     1  UNL1       -0.4523
      6 O           5.8082    3.7214    0.0000 O.3     1  UNL1       -0.4914
      7 O           6.6404   -4.1713    0.0000 O.3     1  UNL1       -0.4914
      8 N           8.9678   -0.2166    0.0000 N.3     1  UNL1       -0.2977
      9 N           2.0000    1.7770    0.0000 N.2     1  UNL1       -0.2870
     10 C           8.0997    0.2846    0.0000 C.3     1  UNL1        0.0433
     11 C           8.0997    1.2870    0.0000 C.ar    1  UNL1        0.0228
     12 C           9.8359    0.2846    0.0000 C.3     1  UNL1        0.0033
     13 C           8.9678    1.7882    0.0000 C.ar    1  UNL1        0.0075
     14 C           9.8359    1.2870    0.0000 C.3     1  UNL1       -0.0108
     15 C           7.2316   -0.2166    0.0000 C.3     1  UNL1       -0.0076
     16 C           7.2316    1.7882    0.0000 C.ar    1  UNL1        0.1788
     17 C           8.9678    2.7906    0.0000 C.ar    1  UNL1        0.1689
     18 C           8.9678   -1.2166    0.0000 C.3     1  UNL1       -0.0122
     19 C           7.0771   -1.1983    0.0000 C.ar    1  UNL1       -0.0419
     20 C           7.2316    2.7906    0.0000 C.ar    1  UNL1        0.2082
     21 C           8.0997    3.2918    0.0000 C.ar    1  UNL1        0.2075
     22 C           6.1453   -1.5681    0.0000 C.ar    1  UNL1       -0.0124
     23 C           7.8631   -1.8204    0.0000 C.ar    1  UNL1       -0.0548
     24 C           5.4724    1.7770    0.0000 C.ar    1  UNL1        0.1706
     25 C           5.9997   -2.5598    0.0000 C.ar    1  UNL1        0.1701
     26 C           3.7362    1.7770    0.0000 C.ar    1  UNL1        0.0031
     27 C           3.7362    2.7795    0.0000 C.ar    1  UNL1       -0.0331
     28 C           7.7175   -2.8121    0.0000 C.ar    1  UNL1       -0.0160
     29 C           4.6043    1.2758    0.0000 C.ar    1  UNL1       -0.0066
     30 C           5.4724    2.7795    0.0000 C.ar    1  UNL1        0.1624
     31 C           6.7857   -3.1819    0.0000 C.ar    1  UNL1        0.1621
     32 C           2.8681    3.2807    0.0000 C.3     1  UNL1       -0.0074
     33 C           2.8681    1.2758    0.0000 C.2     1  UNL1        0.0477
     34 C           4.6043    3.2807    0.0000 C.ar    1  UNL1       -0.0124
     35 C           9.8338    4.2906    0.0000 C.3     1  UNL1        0.0790
     36 C           2.0000    2.7795    0.0000 C.3     1  UNL1        0.0440
     37 C           2.8681    0.2734    0.0000 C.3     1  UNL1        0.0150
     38 C           7.5324    4.4963    0.0000 C.3     1  UNL1        0.0791
     39 C           8.9657    4.7918    0.0000 C.3     1  UNL1        0.0791
     40 C           3.3764   -0.5074    0.0000 C.ar    1  UNL1       -0.0414
     41 C           4.4538   -2.1981    0.0000 C.ar    1  UNL1        0.1286
     42 C           4.3778   -0.4635    0.0000 C.ar    1  UNL1       -0.0547
     43 C           2.9136   -1.3966    0.0000 C.ar    1  UNL1       -0.0547
     44 C           4.9165   -1.3088    0.0000 C.ar    1  UNL1       -0.0191
     45 C           3.4523   -2.2419    0.0000 C.ar    1  UNL1       -0.0191
     46 C           5.1604    4.4832    0.0000 C.3     1  UNL1        0.0790
     47 C           7.4246   -4.7918    0.0000 C.3     1  UNL1        0.0790
     48 H           8.0997   -0.5654    0.0000 H       1  UNL1        0.0517
     49 H          10.0480   -0.2980    0.0000 H       1  UNL1        0.0430
     50 H          10.4465    0.3922    0.0000 H       1  UNL1        0.0430
     51 H          10.4465    1.1793    0.0000 H       1  UNL1        0.0327
     52 H          10.0480    1.8696    0.0000 H       1  UNL1        0.0327
     53 H           7.0501    0.3762    0.0000 H       1  UNL1        0.0332
     54 H           6.6131   -0.2603    0.0000 H       1  UNL1        0.0332
     55 H           8.3478   -1.2166    0.0000 H       1  UNL1        0.0391
     56 H           8.9678   -1.8366    0.0000 H       1  UNL1        0.0391
     57 H           9.5878   -1.2166    0.0000 H       1  UNL1        0.0391
     58 H           5.6592   -1.1833    0.0000 H       1  UNL1        0.0658
     59 H           8.4394   -1.5917    0.0000 H       1  UNL1        0.0621
     60 H           8.2037   -3.1969    0.0000 H       1  UNL1        0.0655
     61 H           4.6043    0.6558    0.0000 H       1  UNL1        0.0662
     62 H           3.2666    3.7556    0.0000 H       1  UNL1        0.0331
     63 H           2.4696    3.7556    0.0000 H       1  UNL1        0.0331
     64 H           4.6043    3.9007    0.0000 H       1  UNL1        0.0658
     65 H          10.4538    4.2906    0.0000 H       1  UNL1        0.0660
     66 H           9.8338    4.9106    0.0000 H       1  UNL1        0.0660
     67 H           9.2138    4.2906    0.0000 H       1  UNL1        0.0660
     68 H           1.7880    3.3621    0.0000 H       1  UNL1        0.0511
     69 H           1.3894    2.6718    0.0000 H       1  UNL1        0.0511
     70 H           2.2818    0.4751    0.0000 H       1  UNL1        0.0377
     71 H           3.4625    0.4498    0.0000 H       1  UNL1        0.0377
     72 H           8.0073    4.0978    0.0000 H       1  UNL1        0.0660
     73 H           7.9309    4.9713    0.0000 H       1  UNL1        0.0660
     74 H           7.0574    4.8949    0.0000 H       1  UNL1        0.0660
     75 H           9.2757    4.2549    0.0000 H       1  UNL1        0.0660
     76 H           9.5027    5.1018    0.0000 H       1  UNL1        0.0660
     77 H           8.6557    5.3287    0.0000 H       1  UNL1        0.0660
     78 H           4.6640    0.0865    0.0000 H       1  UNL1        0.0622
     79 H           2.2942   -1.4237    0.0000 H       1  UNL1        0.0622
     80 H           5.5359   -1.2817    0.0000 H       1  UNL1        0.0654
     81 H           3.1661   -2.7919    0.0000 H       1  UNL1        0.0654
     82 H           5.6327    4.8848    0.0000 H       1  UNL1        0.0660
     83 H           4.7587    4.9555    0.0000 H       1  UNL1        0.0660
     84 H           4.6881    4.0815    0.0000 H       1  UNL1        0.0660
     85 H           7.0399   -5.2780    0.0000 H       1  UNL1        0.0660
     86 H           7.9108   -5.1765    0.0000 H       1  UNL1        0.0660
     87 H           7.8093   -4.3056    0.0000 H       1  UNL1        0.0660
@<TRIPOS>BOND
     1     1    16    1
     2     1    24    1
     3     2    17    1
     4     2    35    1
     5     3    20    1
     6     3    38    1
     7     4    21    1
     8     4    39    1
     9     5    25    1
    10     5    41    1
    11     6    30    1
    12     6    46    1
    13     7    31    1
    14     7    47    1
    15     8    10    1
    16     8    12    1
    17     8    18    1
    18     9    33    2
    19     9    36    1
    20    10    11    1
    21    10    15    1
    22    10    48    1
    23    11    13   ar
    24    11    16   ar
    25    12    14    1
    26    12    49    1
    27    12    50    1
    28    13    14    1
    29    13    17   ar
    30    14    51    1
    31    14    52    1
    32    15    19    1
    33    15    53    1
    34    15    54    1
    35    16    20   ar
    36    17    21   ar
    37    18    55    1
    38    18    56    1
    39    18    57    1
    40    19    22   ar
    41    19    23   ar
    42    20    21   ar
    43    22    25   ar
    44    22    58    1
    45    23    28   ar
    46    23    59    1
    47    24    29   ar
    48    24    30   ar
    49    25    31   ar
    50    26    27   ar
    51    26    29   ar
    52    26    33    1
    53    27    32    1
    54    27    34   ar
    55    28    31   ar
    56    28    60    1
    57    29    61    1
    58    30    34   ar
    59    32    36    1
    60    32    62    1
    61    32    63    1
    62    33    37    1
    63    34    64    1
    64    35    65    1
    65    35    66    1
    66    35    67    1
    67    36    68    1
    68    36    69    1
    69    37    40    1
    70    37    70    1
    71    37    71    1
    72    38    72    1
    73    38    73    1
    74    38    74    1
    75    39    75    1
    76    39    76    1
    77    39    77    1
    78    40    42   ar
    79    40    43   ar
    80    41    44   ar
    81    41    45   ar
    82    42    44   ar
    83    42    78    1
    84    43    45   ar
    85    43    79    1
    86    44    80    1
    87    45    81    1
    88    46    82    1
    89    46    83    1
    90    46    84    1
    91    47    85    1
    92    47    86    1
    93    47    87    1
