@<TRIPOS>MOLECULE
IMPHY009022
 41 43 0 0 0
SMALL
GASTEIGER

@<TRIPOS>ATOM
      1 O           5.9631   -2.8430    0.0000 O.3     1  UNL1       -0.4929
      2 O           2.9757    1.0270    0.0000 O.3     1  UNL1       -0.4930
      3 O           6.5428    1.7624    0.0000 O.2     1  UNL1       -0.2856
      4 O           9.7679    3.3746    0.0000 O.3     1  UNL1       -0.4649
      5 O          10.1476    1.6847    0.0000 O.2     1  UNL1       -0.2456
      6 N           5.0981    0.4280    0.0000 N.ar    1  UNL1       -0.3494
      7 N           7.6255   -0.6962    0.0000 N.ar    1  UNL1       -0.2460
      8 C           5.5981   -1.1108    0.0000 C.ar    1  UNL1        0.0528
      9 C           4.5981   -1.1108    0.0000 C.ar    1  UNL1        0.0146
     10 C           5.9071   -0.1598    0.0000 C.ar    1  UNL1        0.0806
     11 C           4.2891   -0.1598    0.0000 C.ar    1  UNL1        0.0899
     12 C           6.2831   -1.8956    0.0000 C.ar    1  UNL1        0.1478
     13 C           3.2737    0.0725    0.0000 C.ar    1  UNL1        0.1439
     14 C           6.9225    0.0725    0.0000 C.ar    1  UNL1        0.1344
     15 C           3.9131   -1.8956    0.0000 C.ar    1  UNL1       -0.0517
     16 C           2.5707   -0.6962    0.0000 C.ar    1  UNL1       -0.0179
     17 C           2.8926   -1.6868    0.0000 C.ar    1  UNL1       -0.0576
     18 C           7.3036   -1.6868    0.0000 C.ar    1  UNL1        0.0707
     19 C           7.2205    1.0270    0.0000 C.2     1  UNL1        0.2064
     20 C           8.1962    1.2463    0.0000 C.2     1  UNL1       -0.0060
     21 C           6.6236   -3.5938    0.0000 C.3     1  UNL1        0.0789
     22 C           2.0000    1.2463    0.0000 C.3     1  UNL1        0.0789
     23 C           8.4942    2.2008    0.0000 C.2     1  UNL1        0.0262
     24 C           9.4699    2.4200    0.0000 C.2     1  UNL1        0.3318
     25 C          10.7436    3.5938    0.0000 C.3     1  UNL1        0.0820
     26 H           5.0981    1.0480    0.0000 H       1  UNL1        0.1661
     27 H           4.1115   -2.4830    0.0000 H       1  UNL1        0.0624
     28 H           1.9648   -0.5650    0.0000 H       1  UNL1        0.0655
     29 H           2.4795   -2.1492    0.0000 H       1  UNL1        0.0619
     30 H           7.7167   -2.1492    0.0000 H       1  UNL1        0.0867
     31 H           8.6164    0.7903    0.0000 H       1  UNL1        0.0659
     32 H           6.1581   -4.0033    0.0000 H       1  UNL1        0.0660
     33 H           7.0331   -4.0593    0.0000 H       1  UNL1        0.0660
     34 H           7.0891   -3.1843    0.0000 H       1  UNL1        0.0660
     35 H           2.1359    1.8512    0.0000 H       1  UNL1        0.0660
     36 H           1.3951    1.3822    0.0000 H       1  UNL1        0.0660
     37 H           1.8641    0.6413    0.0000 H       1  UNL1        0.0660
     38 H           8.0740    2.6568    0.0000 H       1  UNL1        0.0690
     39 H          10.8795    2.9889    0.0000 H       1  UNL1        0.0661
     40 H          11.3485    3.7297    0.0000 H       1  UNL1        0.0661
     41 H          10.6077    4.1987    0.0000 H       1  UNL1        0.0661
@<TRIPOS>BOND
     1     1    12    1
     2     1    21    1
     3     2    13    1
     4     2    22    1
     5     3    19    2
     6     4    24    1
     7     4    25    1
     8     5    24    2
     9     6    10   ar
    10     6    11   ar
    11     6    26    1
    12     7    14   ar
    13     7    18   ar
    14     8     9   ar
    15     8    10   ar
    16     8    12   ar
    17     9    11   ar
    18     9    15   ar
    19    10    14   ar
    20    11    13   ar
    21    12    18   ar
    22    13    16   ar
    23    14    19    1
    24    15    17   ar
    25    15    27    1
    26    16    17   ar
    27    16    28    1
    28    17    29    1
    29    18    30    1
    30    19    20    1
    31    20    23    2
    32    20    31    1
    33    21    32    1
    34    21    33    1
    35    21    34    1
    36    22    35    1
    37    22    36    1
    38    22    37    1
    39    23    24    1
    40    23    38    1
    41    25    39    1
    42    25    40    1
    43    25    41    1
