@<TRIPOS>MOLECULE
IMPHY003472
 20 20 0 0 0
SMALL
GASTEIGER

@<TRIPOS>ATOM
      1 O           2.5369    1.4050    0.0000 O.3     1  UNL1       -0.3885
      2 O           4.2690    2.4050    0.0000 O.3     1  UNL1       -0.3813
      3 O           6.0010    1.4050    0.0000 O.2     1  UNL1       -0.2898
      4 O           3.4030   -2.0950    0.0000 O.3     1  UNL1       -0.4773
      5 O           5.1350   -2.0950    0.0000 O.2     1  UNL1       -0.2455
      6 C           3.4030    0.9050    0.0000 C.3     1  UNL1        0.0924
      7 C           4.2690    1.4050    0.0000 C.3     1  UNL1        0.1429
      8 C           3.4030   -0.0950    0.0000 C.3     1  UNL1        0.0082
      9 C           4.2690   -0.5950    0.0000 C.2     1  UNL1        0.0423
     10 C           5.1350    0.9050    0.0000 C.2     1  UNL1        0.1873
     11 C           5.1350   -0.0950    0.0000 C.2     1  UNL1       -0.0065
     12 C           4.2690   -1.5950    0.0000 C.2     1  UNL1        0.3330
     13 H           3.4030    1.5250    0.0000 H       1  UNL1        0.0627
     14 H           4.8059    1.7150    0.0000 H       1  UNL1        0.0703
     15 H           2.7924    0.0127    0.0000 H       1  UNL1        0.0341
     16 H           3.1909   -0.6776    0.0000 H       1  UNL1        0.0341
     17 H           5.6720   -0.4050    0.0000 H       1  UNL1        0.0658
     18 H           2.0000    1.0950    0.0000 H       1  UNL1        0.2099
     19 H           4.8059    2.7150    0.0000 H       1  UNL1        0.2105
     20 H           3.4030   -2.7150    0.0000 H       1  UNL1        0.2954
@<TRIPOS>BOND
     1     6     1    1
     2     1    18    1
     3     7     2    1
     4     2    19    1
     5     3    10    2
     6     4    12    1
     7     4    20    1
     8     5    12    2
     9     6     7    1
    10     6     8    1
    11     6    13    1
    12     7    10    1
    13     7    14    1
    14     8     9    1
    15     8    15    1
    16     8    16    1
    17     9    11    2
    18     9    12    1
    19    10    11    1
    20    11    17    1
