@<TRIPOS>MOLECULE
IMPHY013984
 18 18 0 0 0
SMALL
GASTEIGER

@<TRIPOS>ATOM
      1 O           4.5691    0.4648    0.0000 O.2     1  UNL1       -0.4546
      2 O           4.3479    1.8616    0.0000 O.3     1  UNL1       -0.3496
      3 O           2.6723   -1.2952    0.0000 O.2     1  UNL1       -0.5011
      4 O           2.0000    0.7739    0.0000 O.2     1  UNL1       -0.2817
      5 C           3.7601    1.0526    0.0000 C.3     1  UNL1        0.2741
      6 C           2.9511    0.4648    0.0000 C.2     1  UNL1        0.2707
      7 C           4.2601   -0.4862    0.0000 C.2     1  UNL1        0.1437
      8 C           3.2601   -0.4862    0.0000 C.2     1  UNL1        0.2040
      9 C           3.1723    1.8616    0.0000 C.3     1  UNL1        0.0090
     10 C           4.8479   -1.2952    0.0000 C.3     1  UNL1       -0.0031
     11 H           3.6739    2.2261    0.0000 H       1  UNL1        0.0297
     12 H           2.8079    2.3632    0.0000 H       1  UNL1        0.0297
     13 H           2.6707    1.4972    0.0000 H       1  UNL1        0.0297
     14 H           4.3463   -1.6597    0.0000 H       1  UNL1        0.0309
     15 H           5.2123   -1.7968    0.0000 H       1  UNL1        0.0309
     16 H           5.3494   -0.9308    0.0000 H       1  UNL1        0.0309
     17 H           4.9645    1.7968    0.0000 H       1  UNL1        0.2142
     18 H           2.9245   -1.8616    0.0000 H       1  UNL1        0.2924
@<TRIPOS>BOND
     1     1     5    1
     2     1     7    1
     3     2     5    1
     4     2    17    1
     5     3     8    1
     6     3    18    1
     7     4     6    2
     8     5     6    1
     9     5     9    1
    10     6     8    1
    11     7     8    2
    12     7    10    1
    13     9    11    1
    14     9    12    1
    15     9    13    1
    16    10    14    1
    17    10    15    1
    18    10    16    1
