@<TRIPOS>MOLECULE
IMPHY001406
 66 68 0 0 0
SMALL
GASTEIGER

@<TRIPOS>ATOM
      1 P           6.0010   -0.9038    0.0000 P.3     1  UNL1        0.4856
      2 P           6.8671    0.5962    0.0000 P.3     1  UNL1        0.4835
      3 O           9.5127    2.1895    0.0000 O.3     1  UNL1       -0.3456
      4 O           4.2690   -1.9038    0.0000 O.3     1  UNL1       -0.3407
      5 O           6.0010   -1.9038    0.0000 O.3     1  UNL1       -0.2544
      6 O           4.2690   -4.9038    0.0000 O.3     1  UNL1       -0.3871
      7 O           7.9605    4.2599    0.0000 O.3     1  UNL1       -0.3864
      8 O           2.5369   -3.9038    0.0000 O.3     1  UNL1       -0.3865
      9 O          10.0885    4.7122    0.0000 O.3     1  UNL1       -0.3847
     10 O           7.7331    1.0962    0.0000 O.3     1  UNL1       -0.2837
     11 O           2.5369   -0.9038    0.0000 O.3     1  UNL1       -0.3924
     12 O           6.0010    0.0962    0.0000 O.3     1  UNL1       -0.1860
     13 O           7.0010   -0.9038    0.0000 O.3     1  UNL1       -0.3022
     14 O           5.0010   -0.9038    0.0000 O.2     1  UNL1       -0.2268
     15 O          10.9953    1.1055    0.0000 O.2     1  UNL1       -0.2464
     16 O           6.3671    1.4622    0.0000 O.3     1  UNL1       -0.3022
     17 O           6.8671   -2.4038    0.0000 O.2     1  UNL1       -0.2761
     18 O           7.3671   -0.2698    0.0000 O.2     1  UNL1       -0.2269
     19 O          14.1599    2.5145    0.0000 O.2     1  UNL1       -0.2677
     20 N          11.1763    2.8281    0.0000 N.ar    1  UNL1       -0.2715
     21 N           6.0010   -3.9038    0.0000 N.am    1  UNL1       -0.3053
     22 N          12.5776    1.8100    0.0000 N.ar    1  UNL1       -0.2749
     23 C           5.1350   -3.4038    0.0000 C.3     1  UNL1        0.1028
     24 C           4.2690   -3.9038    0.0000 C.3     1  UNL1        0.1065
     25 C           8.7036    3.5907    0.0000 C.3     1  UNL1        0.1135
     26 C           3.4030   -3.4038    0.0000 C.3     1  UNL1        0.1112
     27 C           9.6818    3.7986    0.0000 C.3     1  UNL1        0.1286
     28 C           8.5991    2.5962    0.0000 C.3     1  UNL1        0.1134
     29 C          10.1818    2.9326    0.0000 C.3     1  UNL1        0.1679
     30 C           3.4030   -2.4038    0.0000 C.3     1  UNL1        0.1130
     31 C           5.1350   -2.4038    0.0000 C.3     1  UNL1        0.1912
     32 C           7.7331    2.0962    0.0000 C.3     1  UNL1        0.0879
     33 C           2.5369   -1.9038    0.0000 C.3     1  UNL1        0.0730
     34 C          11.5830    1.9146    0.0000 C.ar    1  UNL1        0.3314
     35 C          11.7641    3.6371    0.0000 C.ar    1  UNL1        0.0171
     36 C           6.8671   -3.4038    0.0000 C.2     1  UNL1        0.2104
     37 C          12.7586    3.5326    0.0000 C.ar    1  UNL1        0.0192
     38 C           7.7331   -3.9038    0.0000 C.3     1  UNL1        0.0122
     39 C          13.1654    2.6190    0.0000 C.ar    1  UNL1        0.2539
     40 H           5.1350   -4.0238    0.0000 H       1  UNL1        0.0575
     41 H           3.7320   -4.2138    0.0000 H       1  UNL1        0.0640
     42 H           8.1248    3.3686    0.0000 H       1  UNL1        0.0647
     43 H           2.8660   -3.0938    0.0000 H       1  UNL1        0.0646
     44 H           9.2916    4.2805    0.0000 H       1  UNL1        0.0665
     45 H           8.6316    1.9771    0.0000 H       1  UNL1        0.0647
     46 H          10.5195    3.4526    0.0000 H       1  UNL1        0.0867
     47 H           3.4030   -1.7838    0.0000 H       1  UNL1        0.0647
     48 H           5.1350   -1.7838    0.0000 H       1  UNL1        0.0935
     49 H           7.5210    2.6788    0.0000 H       1  UNL1        0.0592
     50 H           7.1225    1.9886    0.0000 H       1  UNL1        0.0592
     51 H           1.9264   -1.7961    0.0000 H       1  UNL1        0.0584
     52 H           2.3249   -2.4864    0.0000 H       1  UNL1        0.0584
     53 H           6.0010   -4.5238    0.0000 H       1  UNL1        0.1492
     54 H           3.7320   -5.2138    0.0000 H       1  UNL1        0.2100
     55 H           8.0894    4.8663    0.0000 H       1  UNL1        0.2100
     56 H           2.0000   -3.5938    0.0000 H       1  UNL1        0.2100
     57 H           9.7241    5.2138    0.0000 H       1  UNL1        0.2101
     58 H          11.5119    4.2035    0.0000 H       1  UNL1        0.0813
     59 H           2.0000   -0.5938    0.0000 H       1  UNL1        0.2095
     60 H          12.8297    1.2436    0.0000 H       1  UNL1        0.1734
     61 H          13.1230    4.0342    0.0000 H       1  UNL1        0.0686
     62 H           7.4231   -4.4407    0.0000 H       1  UNL1        0.0322
     63 H           8.2700   -4.2138    0.0000 H       1  UNL1        0.0322
     64 H           8.0431   -3.3668    0.0000 H       1  UNL1        0.0322
     65 H           7.3110   -1.4407    0.0000 H       1  UNL1        0.2220
     66 H           5.7471    1.4622    0.0000 H       1  UNL1        0.2220
@<TRIPOS>BOND
     1     1     5    1
     2     1    12    1
     3     1    13    1
     4     1    14    2
     5     2    10    1
     6     2    12    1
     7     2    16    1
     8     2    18    2
     9     3    28    1
    10     3    29    1
    11     4    30    1
    12     4    31    1
    13    31     5    1
    14    24     6    1
    15     6    54    1
    16    25     7    1
    17     7    55    1
    18    26     8    1
    19     8    56    1
    20    27     9    1
    21     9    57    1
    22    10    32    1
    23    11    33    1
    24    11    59    1
    25    13    65    1
    26    15    34    2
    27    16    66    1
    28    17    36    2
    29    19    39    2
    30    29    20    1
    31    20    34   ar
    32    20    35   ar
    33    23    21    1
    34    21    36   am
    35    21    53    1
    36    22    34   ar
    37    22    39   ar
    38    22    60    1
    39    23    24    1
    40    23    31    1
    41    23    40    1
    42    24    26    1
    43    24    41    1
    44    25    27    1
    45    25    28    1
    46    25    42    1
    47    26    30    1
    48    26    43    1
    49    27    29    1
    50    27    44    1
    51    28    32    1
    52    28    45    1
    53    29    46    1
    54    30    33    1
    55    30    47    1
    56    31    48    1
    57    32    49    1
    58    32    50    1
    59    33    51    1
    60    33    52    1
    61    35    37   ar
    62    35    58    1
    63    36    38    1
    64    37    39   ar
    65    37    61    1
    66    38    62    1
    67    38    63    1
    68    38    64    1
