@<TRIPOS>MOLECULE
IMPHY006490
 26 29 0 0 0
SMALL
GASTEIGER

@<TRIPOS>ATOM
      1 O           4.5124   -1.1909    0.0000 O.2     1  UNL1       -0.4538
      2 O           6.6564    0.8776    0.0000 O.2     1  UNL1       -0.4215
      3 O           5.3692    2.0365    0.0000 O.2     1  UNL1       -0.2444
      4 C           5.0091    0.3423    0.0000 C.ar    1  UNL1        0.1128
      5 C           5.3181   -0.6087    0.0000 C.ar    1  UNL1        0.1537
      6 C           4.0150    0.3398    0.0000 C.ar    1  UNL1        0.0348
      7 C           6.2962   -0.8166    0.0000 C.ar    1  UNL1        0.0604
      8 C           3.7086   -0.6059    0.0000 C.ar    1  UNL1        0.1365
      9 C           6.9654   -0.0735    0.0000 C.ar    1  UNL1        0.1426
     10 C           5.6782    1.0855    0.0000 C.ar    1  UNL1        0.3488
     11 C           3.3334    1.1193    0.0000 C.ar    1  UNL1       -0.0502
     12 C           6.6028   -1.8121    0.0000 C.ar    1  UNL1       -0.0475
     13 C           2.6994   -0.8377    0.0000 C.ar    1  UNL1       -0.0187
     14 C           7.9875   -0.2743    0.0000 C.ar    1  UNL1       -0.0185
     15 C           2.3191    0.9109    0.0000 C.ar    1  UNL1       -0.0610
     16 C           2.0000   -0.0742    0.0000 C.ar    1  UNL1       -0.0582
     17 C           7.6200   -2.0365    0.0000 C.ar    1  UNL1       -0.0609
     18 C           8.3170   -1.2625    0.0000 C.ar    1  UNL1       -0.0582
     19 H           3.5313    1.7068    0.0000 H       1  UNL1        0.0625
     20 H           6.1826   -2.2680    0.0000 H       1  UNL1        0.0626
     21 H           2.5152   -1.4297    0.0000 H       1  UNL1        0.0654
     22 H           8.3970    0.1912    0.0000 H       1  UNL1        0.0654
     23 H           1.9056    1.3729    0.0000 H       1  UNL1        0.0618
     24 H           1.3942   -0.2059    0.0000 H       1  UNL1        0.0619
     25 H           7.8093   -2.6269    0.0000 H       1  UNL1        0.0618
     26 H           8.9239   -1.3890    0.0000 H       1  UNL1        0.0619
@<TRIPOS>BOND
     1     1     5   ar
     2     1     8   ar
     3     2     9   ar
     4     2    10   ar
     5     3    10    2
     6     4     5   ar
     7     4     6   ar
     8     4    10   ar
     9     5     7   ar
    10     6     8   ar
    11     6    11   ar
    12     7     9   ar
    13     7    12   ar
    14     8    13   ar
    15     9    14   ar
    16    11    15   ar
    17    11    19    1
    18    12    17   ar
    19    12    20    1
    20    13    16   ar
    21    13    21    1
    22    14    18   ar
    23    14    22    1
    24    15    16   ar
    25    15    23    1
    26    16    24    1
    27    17    18   ar
    28    17    25    1
    29    18    26    1
