@<TRIPOS>MOLECULE
IMPHY000741
 18 20 0 0 0
SMALL
GASTEIGER

@<TRIPOS>ATOM
      1 C          -3.9685    2.5734    0.0000 C.3     1  UNL1        0.0311
      2 C          -3.0533   -1.5932    0.0000 C.3     1  UNL1        0.0312
      3 C          -0.2704    2.5734    0.0000 C.3     1  UNL1        0.0379
      4 C          -4.6320    0.9195    0.0000 C.2     1  UNL1        0.0378
      5 C          -1.6195   -0.6922    0.0000 C.ar    1  UNL1        0.0334
      6 C          -2.1195    1.4985    0.0000 C.ar    1  UNL1        0.0027
      7 C          -3.8789    1.5775    0.0000 C.2     1  UNL1       -0.0186
      8 C          -2.6195   -0.6922    0.0000 C.ar    1  UNL1       -0.0157
      9 C          -0.3600    1.5775    0.0000 C.ar    1  UNL1        0.0570
     10 C          -3.0204    1.0646    0.0000 C.ar    1  UNL1       -0.0010
     11 C          -1.2185    1.0646    0.0000 C.ar    1  UNL1        0.0369
     12 C          -4.2389    0.0000    0.0000 C.2     1  UNL1        0.1950
     13 C          -0.9960    0.0896    0.0000 C.ar    1  UNL1        0.1482
     14 C          -3.2430    0.0896    0.0000 C.ar    1  UNL1        0.0348
     15 C           0.3930    0.9195    0.0000 C.ar    1  UNL1        0.3418
     16 O          -4.7518   -0.8584    0.0000 O.2     1  UNL1       -0.2866
     17 O           1.3680    1.1420    0.0000 O.2     1  UNL1       -0.2448
     18 O           0.0000    0.0000    0.0000 O.2     1  UNL1       -0.4213
@<TRIPOS>BOND
     1     1     7    1
     2     2     8    1
     3     3     9    1
     4     4     7    2
     5     4    12    1
     6     5     8   ar
     7     5    13   ar
     8     6    10   ar
     9     6    11   ar
    10     7    10    1
    11     8    14   ar
    12     9    11   ar
    13     9    15   ar
    14    10    14   ar
    15    11    13    1
    16    12    14    1
    17    12    16    2
    18    13    18   ar
    19    15    17    2
    20    15    18   ar
