@<TRIPOS>MOLECULE
IMPHY011287
 47 51 0 0 0
SMALL
GASTEIGER

@<TRIPOS>ATOM
      1 O           9.0379    0.7134    0.0000 O.3     1  UNL1       -0.4646
      2 O           8.1718    2.2134    0.0000 O.2     1  UNL1       -0.2453
      3 O           2.3644    1.9450    0.0000 O.3     1  UNL1       -0.5068
      4 N           4.6959   -0.5600    0.0000 N.3     1  UNL1       -0.2942
      5 N           6.2612    2.1512    0.0000 N.pl3   1  UNL1       -0.3164
      6 C           5.6210    0.7134    0.0000 C.3     1  UNL1        0.0527
      7 C           5.6210   -0.2594    0.0000 C.3     1  UNL1        0.0265
      8 C           4.6959    1.0139    0.0000 C.3     1  UNL1       -0.0238
      9 C           6.4634   -0.7458    0.0000 C.3     1  UNL1       -0.0253
     10 C           7.3058   -0.2594    0.0000 C.3     1  UNL1        0.0161
     11 C           6.4634    1.1997    0.0000 C.2     1  UNL1        0.0309
     12 C           4.1241    0.2270    0.0000 C.3     1  UNL1        0.0007
     13 C           4.8981    1.3642    0.0000 C.ar    1  UNL1       -0.0096
     14 C           5.4691   -1.3078    0.0000 C.3     1  UNL1        0.0209
     15 C           7.3058    0.7134    0.0000 C.2     1  UNL1        0.0615
     16 C           6.7012   -1.3078    0.0000 C.2     1  UNL1       -0.0521
     17 C           5.2938    2.2529    0.0000 C.ar    1  UNL1        0.0355
     18 C           3.9307    1.2626    0.0000 C.ar    1  UNL1       -0.0143
     19 C           8.1718    1.2134    0.0000 C.2     1  UNL1        0.3370
     20 C           7.2012   -2.1738    0.0000 C.2     1  UNL1       -0.0861
     21 C           4.7220    3.0398    0.0000 C.ar    1  UNL1       -0.0368
     22 C           3.3590    2.0495    0.0000 C.ar    1  UNL1        0.1173
     23 C           3.7546    2.9382    0.0000 C.ar    1  UNL1       -0.0184
     24 C           6.7012   -3.0398    0.0000 C.3     1  UNL1       -0.0465
     25 C           9.9039    1.2134    0.0000 C.3     1  UNL1        0.0820
     26 H           5.1518   -0.9681    0.0000 H       1  UNL1        0.0475
     27 H           4.9481    1.5803    0.0000 H       1  UNL1        0.0290
     28 H           4.1589    1.3239    0.0000 H       1  UNL1        0.0290
     29 H           6.0649   -1.2207    0.0000 H       1  UNL1        0.0290
     30 H           6.8619   -1.2207    0.0000 H       1  UNL1        0.0290
     31 H           8.1269   -0.4792    0.0000 H       1  UNL1        0.0398
     32 H           3.6634    0.6418    0.0000 H       1  UNL1        0.0427
     33 H           3.6634   -0.1879    0.0000 H       1  UNL1        0.0427
     34 H           4.9356   -1.6237    0.0000 H       1  UNL1        0.0473
     35 H           5.6328   -1.9058    0.0000 H       1  UNL1        0.0473
     36 H           6.6256    2.6528    0.0000 H       1  UNL1        0.1519
     37 H           3.6785    0.6962    0.0000 H       1  UNL1        0.0658
     38 H           7.8212   -2.1738    0.0000 H       1  UNL1        0.0569
     39 H           4.9742    3.6062    0.0000 H       1  UNL1        0.0637
     40 H           3.3902    3.4398    0.0000 H       1  UNL1        0.0655
     41 H           6.1643   -2.7298    0.0000 H       1  UNL1        0.0272
     42 H           6.3912   -3.5768    0.0000 H       1  UNL1        0.0272
     43 H           7.2381   -3.3498    0.0000 H       1  UNL1        0.0272
     44 H           2.0000    2.4466    0.0000 H       1  UNL1        0.2921
     45 H          10.2139    0.6764    0.0000 H       1  UNL1        0.0661
     46 H          10.4408    1.5234    0.0000 H       1  UNL1        0.0661
     47 H           9.5939    1.7503    0.0000 H       1  UNL1        0.0661
@<TRIPOS>BOND
     1     1    19    1
     2     1    25    1
     3     2    19    2
     4     3    22    1
     5     3    44    1
     6     4     7    1
     7     4    12    1
     8     4    14    1
     9     5    11    1
    10     5    17    1
    11     5    36    1
    12     6     7    1
    13     6     8    1
    14     6    11    1
    15     6    13    1
    16     7     9    1
    17     7    26    1
    18     8    12    1
    19     8    27    1
    20     8    28    1
    21     9    10    1
    22     9    29    1
    23     9    30    1
    24    10    15    1
    25    10    16    1
    26    10    31    1
    27    11    15    2
    28    12    32    1
    29    12    33    1
    30    13    17   ar
    31    13    18   ar
    32    14    16    1
    33    14    34    1
    34    14    35    1
    35    15    19    1
    36    16    20    2
    37    17    21   ar
    38    18    22   ar
    39    18    37    1
    40    20    24    1
    41    20    38    1
    42    21    23   ar
    43    21    39    1
    44    22    23   ar
    45    23    40    1
    46    24    41    1
    47    24    42    1
    48    24    43    1
    49    25    45    1
    50    25    46    1
    51    25    47    1
