@<TRIPOS>MOLECULE
IMPHY011544
 28 30 0 0 0
SMALL
GASTEIGER

@<TRIPOS>ATOM
      1 O           6.4144    1.8592    0.0000 O.3     1  UNL1       -0.5058
      2 O           4.6660    1.8246    0.0000 O.2     1  UNL1       -0.2865
      3 O           4.6660   -2.1754    0.0000 O.2     1  UNL1       -0.2866
      4 C           5.5321    0.3246    0.0000 C.ar    1  UNL1        0.0747
      5 C           5.5321   -0.6754    0.0000 C.ar    1  UNL1        0.0366
      6 C           3.8000    0.3246    0.0000 C.ar    1  UNL1        0.0332
      7 C           3.8000   -0.6754    0.0000 C.ar    1  UNL1        0.0331
      8 C           4.6660    0.8246    0.0000 C.2     1  UNL1        0.1980
      9 C           4.6660   -1.1754    0.0000 C.2     1  UNL1        0.1946
     10 C           6.4260    0.8593    0.0000 C.ar    1  UNL1        0.1312
     11 C           7.3321    0.3454    0.0000 C.ar    1  UNL1       -0.0083
     12 C           6.4260   -1.2100    0.0000 C.ar    1  UNL1       -0.0498
     13 C           7.3321   -0.6962    0.0000 C.ar    1  UNL1       -0.0547
     14 C           2.9061    0.8593    0.0000 C.ar    1  UNL1       -0.0502
     15 C           2.9061   -1.2100    0.0000 C.ar    1  UNL1       -0.0502
     16 C           8.1962    0.8488    0.0000 C.3     1  UNL1       -0.0362
     17 C           2.0000    0.3454    0.0000 C.ar    1  UNL1       -0.0610
     18 C           2.0000   -0.6962    0.0000 C.ar    1  UNL1       -0.0610
     19 H           6.4188   -1.8300    0.0000 H       1  UNL1        0.0625
     20 H           7.8678   -1.0083    0.0000 H       1  UNL1        0.0622
     21 H           2.9132    1.4792    0.0000 H       1  UNL1        0.0625
     22 H           2.9132   -1.8300    0.0000 H       1  UNL1        0.0625
     23 H           8.5082    0.3130    0.0000 H       1  UNL1        0.0279
     24 H           8.7319    1.1608    0.0000 H       1  UNL1        0.0279
     25 H           7.8841    1.3845    0.0000 H       1  UNL1        0.0279
     26 H           1.4643    0.6575    0.0000 H       1  UNL1        0.0618
     27 H           1.4643   -1.0083    0.0000 H       1  UNL1        0.0618
     28 H           6.9478    2.1754    0.0000 H       1  UNL1        0.2922
@<TRIPOS>BOND
     1     1    10    1
     2     1    28    1
     3     2     8    2
     4     3     9    2
     5     4     5   ar
     6     4     8    1
     7     4    10   ar
     8     5     9    1
     9     5    12   ar
    10     6     7   ar
    11     6     8    1
    12     6    14   ar
    13     7     9    1
    14     7    15   ar
    15    10    11   ar
    16    11    13   ar
    17    11    16    1
    18    12    13   ar
    19    12    19    1
    20    13    20    1
    21    14    17   ar
    22    14    21    1
    23    15    18   ar
    24    15    22    1
    25    16    23    1
    26    16    24    1
    27    16    25    1
    28    17    18   ar
    29    17    26    1
    30    18    27    1
