@<TRIPOS>MOLECULE
IMPHY003706
 41 45 0 0 0
SMALL
GASTEIGER

@<TRIPOS>ATOM
      1 O           3.5629   -5.3514    0.0000 O.3     1  UNL1       -0.4746
      2 O           6.4532   -7.1543    0.0000 O.2     1  UNL1       -0.2747
      3 O           8.4850   -2.5469    0.0000 O.2     1  UNL1       -0.2751
      4 O           1.0016  -12.3770    0.0000 O.3     1  UNL1       -0.2866
      5 N           6.9683   -7.9985    0.0000 N.am    1  UNL1       -0.2794
      6 N           9.7871   -1.0016    0.0000 N.3     1  UNL1       -0.2990
      7 N          11.0892   -4.4357    0.0000 N.am    1  UNL1       -0.3042
      8 N          13.3214   -5.6233    0.0000 N.3     1  UNL1       -0.2974
      9 C           5.7950   -6.6392    0.0000 C.3     1  UNL1        0.1128
     10 C           4.2067   -6.8109    0.0000 C.3     1  UNL1        0.1962
     11 C           6.1384   -5.0796    0.0000 C.ar    1  UNL1        0.0192
     12 C           5.1654   -8.1130    0.0000 C.2     1  UNL1        0.2287
     13 C           4.7505   -4.2783    0.0000 C.ar    1  UNL1        0.1351
     14 C           8.1702   -1.2019    0.0000 C.3     1  UNL1        0.0507
     15 C           7.5264   -2.6757    0.0000 C.ar    1  UNL1       -0.0129
     16 C           7.5264   -4.2783    0.0000 C.ar    1  UNL1       -0.0043
     17 C           3.4055   -8.1989    0.0000 C.ar    1  UNL1        0.0179
     18 C           8.4135   -8.7426    0.0000 C.3     1  UNL1        0.0934
     19 C           7.9699   -6.7394    0.0000 C.3     1  UNL1        0.0952
     20 C           4.7505   -2.6757    0.0000 C.ar    1  UNL1        0.0363
     21 C          10.0304   -8.8284    0.0000 C.3     1  UNL1        0.0229
     22 C           9.6440   -1.8315    0.0000 C.3     1  UNL1        0.0996
     23 C           6.1384   -1.8601    0.0000 C.ar    1  UNL1       -0.0002
     24 C           9.5582   -6.9826    0.0000 C.3     1  UNL1        0.0427
     25 C          11.5614   -8.2561    0.0000 C.3     1  UNL1        0.0188
     26 C          11.3325   -1.4738    0.0000 C.3     1  UNL1        0.0699
     27 C          10.8460   -6.0239    0.0000 C.3     1  UNL1        0.0911
     28 C          12.5773   -2.5326    0.0000 C.3     1  UNL1        0.0341
     29 C          12.7204   -7.1257    0.0000 C.3     1  UNL1        0.0686
     30 C           4.2067   -9.5868    0.0000 C.ar    1  UNL1        0.0025
     31 C           1.8029   -8.1989    0.0000 C.ar    1  UNL1        0.0025
     32 C           9.8301   -3.4341    0.0000 C.2     1  UNL1        0.2238
     33 C          13.2784   -3.9921    0.0000 C.3     1  UNL1        0.0700
     34 C           3.4055  -10.9891    0.0000 C.ar    1  UNL1        0.0418
     35 C           1.0016   -9.5868    0.0000 C.ar    1  UNL1        0.0418
     36 C           1.8029  -10.9891    0.0000 C.ar    1  UNL1        0.1957
     37 H           6.8395   -5.8809    0.0000 H       1  UNL1        0.0489
     38 H           6.9969   -0.6868    0.0000 H       1  UNL1        0.0521
     39 H           9.8730    0.0000    0.0000 H       1  UNL1        0.1232
     40 H          11.8619   -5.0510    0.0000 H       1  UNL1        0.1494
     41 H          14.3087   -5.7950    0.0000 H       1  UNL1        0.1232
@<TRIPOS>BOND
     1     1    10    1
     2     1    13    1
     3     2    12    2
     4     3    32    2
     5     4    36    1
     6     5    12   am
     7     5    18    1
     8     5    19    1
     9     6    14    1
    10     6    26    1
    11     6    39    1
    12     7    27    1
    13     7    32   am
    14     7    40    1
    15     8    29    1
    16     8    33    1
    17     8    41    1
    18     9    10    1
    19     9    11    1
    20     9    12    1
    21     9    37    1
    22    10    17    1
    23    11    13   ar
    24    11    16   ar
    25    13    20   ar
    26    14    15    1
    27    14    22    1
    28    14    38    1
    29    15    16   ar
    30    15    23   ar
    31    17    30   ar
    32    17    31   ar
    33    18    21    1
    34    19    24    1
    35    20    23   ar
    36    21    25    1
    37    22    32    1
    38    24    27    1
    39    25    29    1
    40    26    28    1
    41    28    33    1
    42    30    34   ar
    43    31    35   ar
    44    34    36   ar
    45    35    36   ar
