@<TRIPOS>MOLECULE
IMPHY016624
 10 9 0 0 0
SMALL
GASTEIGER

@<TRIPOS>ATOM
      1 S           2.8660    0.2500    0.0000 S.O     1  UNL1        0.0159
      2 O           3.7320    0.7500    0.0000 O.2     1  UNL1       -0.2577
      3 C           2.0000    0.7500    0.0000 C.3     1  UNL1        0.0115
      4 C           2.8660   -0.7500    0.0000 C.3     1  UNL1        0.0115
      5 H           2.3100    1.2869    0.0000 H       1  UNL1        0.0365
      6 H           1.4631    1.0600    0.0000 H       1  UNL1        0.0365
      7 H           1.6900    0.2131    0.0000 H       1  UNL1        0.0365
      8 H           2.2460   -0.7500    0.0000 H       1  UNL1        0.0365
      9 H           2.8660   -1.3700    0.0000 H       1  UNL1        0.0365
     10 H           3.4860   -0.7500    0.0000 H       1  UNL1        0.0365
@<TRIPOS>BOND
     1     1     2    2
     2     1     3    1
     3     1     4    1
     4     3     5    1
     5     3     6    1
     6     3     7    1
     7     4     8    1
     8     4     9    1
     9     4    10    1
