@<TRIPOS>MOLECULE
IMPHY012690
 54 54 0 0 0
SMALL
GASTEIGER

@<TRIPOS>ATOM
      1 O           7.1485    1.8459    0.0000 O.2     1  UNL1       -0.4643
      2 O          13.7523   -4.0022    0.0000 O.3     1  UNL1       -0.4806
      3 O          14.2876   -2.3549    0.0000 O.2     1  UNL1       -0.2510
      4 C          10.0675    0.8375    0.0000 C.3     1  UNL1       -0.0527
      5 C          10.2754   -0.1407    0.0000 C.3     1  UNL1       -0.0530
      6 C           9.1165    1.1465    0.0000 C.3     1  UNL1       -0.0462
      7 C          11.2265   -0.4497    0.0000 C.3     1  UNL1       -0.0530
      8 C           8.9086    2.1246    0.0000 C.3     1  UNL1        0.0058
      9 C          11.4344   -1.4278    0.0000 C.3     1  UNL1       -0.0526
     10 C           7.9575    2.4337    0.0000 C.ar    1  UNL1        0.1081
     11 C           5.3884    2.1246    0.0000 C.3     1  UNL1        0.0055
     12 C          12.3855   -1.7368    0.0000 C.3     1  UNL1       -0.0430
     13 C           6.3395    2.4337    0.0000 C.ar    1  UNL1        0.1055
     14 C           7.6485    3.3847    0.0000 C.ar    1  UNL1       -0.0093
     15 C           4.6453    2.7938    0.0000 C.3     1  UNL1       -0.0462
     16 C           6.6485    3.3847    0.0000 C.ar    1  UNL1       -0.0175
     17 C           3.6942    2.4848    0.0000 C.3     1  UNL1       -0.0529
     18 C          12.5934   -2.7150    0.0000 C.3     1  UNL1        0.0448
     19 C           2.9511    3.1539    0.0000 C.3     1  UNL1       -0.0559
     20 C           8.2363    4.1937    0.0000 C.3     1  UNL1       -0.0364
     21 C           2.0000    2.8449    0.0000 C.3     1  UNL1       -0.0653
     22 C          13.5444   -3.0240    0.0000 C.2     1  UNL1        0.3047
     23 H          10.6871    0.8591    0.0000 H       1  UNL1        0.0265
     24 H          10.1538    1.4514    0.0000 H       1  UNL1        0.0265
     25 H           9.6558   -0.1623    0.0000 H       1  UNL1        0.0265
     26 H          10.1891   -0.7546    0.0000 H       1  UNL1        0.0265
     27 H           8.4968    1.1249    0.0000 H       1  UNL1        0.0269
     28 H           9.0302    0.5325    0.0000 H       1  UNL1        0.0269
     29 H          11.8461   -0.4280    0.0000 H       1  UNL1        0.0265
     30 H          11.3128    0.1643    0.0000 H       1  UNL1        0.0265
     31 H           9.5282    2.1463    0.0000 H       1  UNL1        0.0344
     32 H           8.9948    2.7386    0.0000 H       1  UNL1        0.0344
     33 H          10.8148   -1.4495    0.0000 H       1  UNL1        0.0265
     34 H          11.3481   -2.0418    0.0000 H       1  UNL1        0.0265
     35 H           4.8998    1.7429    0.0000 H       1  UNL1        0.0343
     36 H           5.6795    1.5772    0.0000 H       1  UNL1        0.0343
     37 H          13.0051   -1.7152    0.0000 H       1  UNL1        0.0270
     38 H          12.4717   -1.1229    0.0000 H       1  UNL1        0.0270
     39 H           5.1338    3.1755    0.0000 H       1  UNL1        0.0269
     40 H           4.3542    3.3412    0.0000 H       1  UNL1        0.0269
     41 H           6.2840    3.8863    0.0000 H       1  UNL1        0.0654
     42 H           3.2056    2.1031    0.0000 H       1  UNL1        0.0265
     43 H           3.9853    1.9373    0.0000 H       1  UNL1        0.0265
     44 H          11.9737   -2.7366    0.0000 H       1  UNL1        0.0377
     45 H          12.5071   -3.3290    0.0000 H       1  UNL1        0.0377
     46 H           3.4396    3.5356    0.0000 H       1  UNL1        0.0263
     47 H           2.6600    3.7013    0.0000 H       1  UNL1        0.0263
     48 H           8.7378    3.8293    0.0000 H       1  UNL1        0.0279
     49 H           8.6007    4.6953    0.0000 H       1  UNL1        0.0279
     50 H           7.7347    4.5582    0.0000 H       1  UNL1        0.0279
     51 H           1.8084    3.4345    0.0000 H       1  UNL1        0.0230
     52 H           1.4103    2.6533    0.0000 H       1  UNL1        0.0230
     53 H           2.1916    2.2552    0.0000 H       1  UNL1        0.0230
     54 H          14.3420   -4.1937    0.0000 H       1  UNL1        0.2951
@<TRIPOS>BOND
     1     1    10   ar
     2     1    13   ar
     3     2    22    1
     4     2    54    1
     5     3    22    2
     6     4     5    1
     7     4     6    1
     8     4    23    1
     9     4    24    1
    10     5     7    1
    11     5    25    1
    12     5    26    1
    13     6     8    1
    14     6    27    1
    15     6    28    1
    16     7     9    1
    17     7    29    1
    18     7    30    1
    19     8    10    1
    20     8    31    1
    21     8    32    1
    22     9    12    1
    23     9    33    1
    24     9    34    1
    25    10    14   ar
    26    11    13    1
    27    11    15    1
    28    11    35    1
    29    11    36    1
    30    12    18    1
    31    12    37    1
    32    12    38    1
    33    13    16   ar
    34    14    16   ar
    35    14    20    1
    36    15    17    1
    37    15    39    1
    38    15    40    1
    39    16    41    1
    40    17    19    1
    41    17    42    1
    42    17    43    1
    43    18    22    1
    44    18    44    1
    45    18    45    1
    46    19    21    1
    47    19    46    1
    48    19    47    1
    49    20    48    1
    50    20    49    1
    51    20    50    1
    52    21    51    1
    53    21    52    1
    54    21    53    1
