@<TRIPOS>MOLECULE
IMPHY016129
 39 39 0 0 0
SMALL
GASTEIGER

@<TRIPOS>ATOM
      1 O           2.0000    0.5000    0.0000 O.2     1  UNL1       -0.3008
      2 C           7.1962    0.5000    0.0000 C.3     1  UNL1       -0.0136
      3 C           6.3301   -0.0000    0.0000 C.2     1  UNL1       -0.0649
      4 C           8.0622   -0.0000    0.0000 C.3     1  UNL1       -0.0439
      5 C           8.0622   -1.0000    0.0000 C.3     1  UNL1       -0.0486
      6 C           6.3301   -1.0000    0.0000 C.2     1  UNL1       -0.0729
      7 C           7.1962   -1.5000    0.0000 C.3     1  UNL1       -0.0317
      8 C           5.4641    0.5000    0.0000 C.3     1  UNL1       -0.0304
      9 C           7.6962    1.3660    0.0000 C.3     1  UNL1       -0.0561
     10 C           6.6962    1.3660    0.0000 C.3     1  UNL1       -0.0561
     11 C           4.5981    0.0000    0.0000 C.3     1  UNL1       -0.0403
     12 C           5.4641   -1.5000    0.0000 C.3     1  UNL1       -0.0435
     13 C           3.7320    0.5000    0.0000 C.3     1  UNL1        0.0119
     14 C           3.7320    1.5000    0.0000 C.3     1  UNL1       -0.0560
     15 C           2.8660    0.0000    0.0000 C.2     1  UNL1        0.1231
     16 H           8.6728   -0.1077    0.0000 H       1  UNL1        0.0274
     17 H           8.2742    0.5826    0.0000 H       1  UNL1        0.0274
     18 H           8.2742   -1.5826    0.0000 H       1  UNL1        0.0269
     19 H           8.6728   -0.8923    0.0000 H       1  UNL1        0.0269
     20 H           6.7976   -1.9750    0.0000 H       1  UNL1        0.0310
     21 H           7.5947   -1.9750    0.0000 H       1  UNL1        0.0310
     22 H           5.8626    0.9749    0.0000 H       1  UNL1        0.0310
     23 H           5.0656    0.9749    0.0000 H       1  UNL1        0.0310
     24 H           8.2331    1.0560    0.0000 H       1  UNL1        0.0238
     25 H           8.0062    1.9030    0.0000 H       1  UNL1        0.0238
     26 H           7.1592    1.6760    0.0000 H       1  UNL1        0.0238
     27 H           7.2331    1.6760    0.0000 H       1  UNL1        0.0238
     28 H           6.3862    1.9030    0.0000 H       1  UNL1        0.0238
     29 H           6.1592    1.0560    0.0000 H       1  UNL1        0.0238
     30 H           4.1996   -0.4749    0.0000 H       1  UNL1        0.0275
     31 H           4.9966   -0.4749    0.0000 H       1  UNL1        0.0275
     32 H           5.1541   -0.9631    0.0000 H       1  UNL1        0.0274
     33 H           4.9272   -1.8100    0.0000 H       1  UNL1        0.0274
     34 H           5.7741   -2.0369    0.0000 H       1  UNL1        0.0274
     35 H           3.7320   -0.1200    0.0000 H       1  UNL1        0.0372
     36 H           4.3520    1.5000    0.0000 H       1  UNL1        0.0236
     37 H           3.7320    2.1200    0.0000 H       1  UNL1        0.0236
     38 H           3.1120    1.5000    0.0000 H       1  UNL1        0.0236
     39 H           2.8660   -0.6200    0.0000 H       1  UNL1        0.1029
@<TRIPOS>BOND
     1     1    15    2
     2     2     3    1
     3     2     4    1
     4     2     9    1
     5     2    10    1
     6     3     6    2
     7     3     8    1
     8     4     5    1
     9     4    16    1
    10     4    17    1
    11     5     7    1
    12     5    18    1
    13     5    19    1
    14     6     7    1
    15     6    12    1
    16     7    20    1
    17     7    21    1
    18     8    11    1
    19     8    22    1
    20     8    23    1
    21     9    24    1
    22     9    25    1
    23     9    26    1
    24    10    27    1
    25    10    28    1
    26    10    29    1
    27    11    13    1
    28    11    30    1
    29    11    31    1
    30    12    32    1
    31    12    33    1
    32    12    34    1
    33    13    14    1
    34    13    15    1
    35    13    35    1
    36    14    36    1
    37    14    37    1
    38    14    38    1
    39    15    39    1
