@<TRIPOS>MOLECULE
IMPHY006304
 44 48 0 0 0
SMALL
GASTEIGER

@<TRIPOS>ATOM
      1 O           8.7939   -1.5254    0.0000 O.3     1  UNL1       -0.4564
      2 O           8.0011    2.6417    0.0000 O.3     1  UNL1       -0.4526
      3 O           6.6073    3.4464    0.0000 O.3     1  UNL1       -0.4525
      4 O           2.8680   -0.5012    0.0000 O.3     1  UNL1       -0.4914
      5 O           2.8680   -2.5495    0.0000 O.3     1  UNL1       -0.4914
      6 O           4.6660    0.4746    0.0000 O.3     1  UNL1       -0.5060
      7 O           8.5210    0.2299    0.0000 O.2     1  UNL1       -0.2449
      8 C           6.3981   -0.5254    0.0000 C.ar    1  UNL1        0.0079
      9 C           7.2641   -1.0254    0.0000 C.ar    1  UNL1        0.0738
     10 C           5.5320   -1.0254    0.0000 C.ar    1  UNL1       -0.0056
     11 C           7.2641   -2.0254    0.0000 C.ar    1  UNL1        0.0048
     12 C           5.5320   -2.0254    0.0000 C.ar    1  UNL1       -0.0132
     13 C           6.3981    0.4746    0.0000 C.ar    1  UNL1        0.0286
     14 C           6.3981   -2.5254    0.0000 C.ar    1  UNL1       -0.0467
     15 C           8.2103   -2.3301    0.0000 C.3     1  UNL1        0.1186
     16 C           8.2103   -0.7206    0.0000 C.2     1  UNL1        0.3405
     17 C           4.6381   -0.4907    0.0000 C.ar    1  UNL1       -0.0080
     18 C           4.6381   -2.5600    0.0000 C.ar    1  UNL1       -0.0086
     19 C           7.2641    0.9746    0.0000 C.ar    1  UNL1       -0.0049
     20 C           5.5320    0.9746    0.0000 C.ar    1  UNL1        0.1283
     21 C           3.7320   -1.0046    0.0000 C.ar    1  UNL1        0.1621
     22 C           3.7320   -2.0462    0.0000 C.ar    1  UNL1        0.1621
     23 C           7.2641    1.9746    0.0000 C.ar    1  UNL1        0.1670
     24 C           6.3981    2.4746    0.0000 C.ar    1  UNL1        0.1697
     25 C           5.5320    1.9746    0.0000 C.ar    1  UNL1        0.0259
     26 C           7.5960    3.5495    0.0000 C.3     1  UNL1        0.2332
     27 C           2.0000   -0.9979    0.0000 C.3     1  UNL1        0.0790
     28 C           2.8718   -3.5495    0.0000 C.3     1  UNL1        0.0790
     29 H           6.3981   -3.1454    0.0000 H       1  UNL1        0.0628
     30 H           7.9593   -2.8970    0.0000 H       1  UNL1        0.0749
     31 H           8.7477   -2.6393    0.0000 H       1  UNL1        0.0749
     32 H           4.6453    0.1293    0.0000 H       1  UNL1        0.0662
     33 H           4.6453   -3.1800    0.0000 H       1  UNL1        0.0661
     34 H           7.8010    0.6646    0.0000 H       1  UNL1        0.0663
     35 H           4.9951    2.2846    0.0000 H       1  UNL1        0.0692
     36 H           8.1856    3.7413    0.0000 H       1  UNL1        0.1166
     37 H           7.4673    4.1560    0.0000 H       1  UNL1        0.1166
     38 H           4.1291    0.7846    0.0000 H       1  UNL1        0.2922
     39 H           1.6921   -0.4597    0.0000 H       1  UNL1        0.0660
     40 H           1.4619   -1.3058    0.0000 H       1  UNL1        0.0660
     41 H           2.3079   -1.5360    0.0000 H       1  UNL1        0.0660
     42 H           2.2518   -3.5519    0.0000 H       1  UNL1        0.0660
     43 H           2.8742   -4.1695    0.0000 H       1  UNL1        0.0660
     44 H           3.4918   -3.5471    0.0000 H       1  UNL1        0.0660
@<TRIPOS>BOND
     1     1    15    1
     2     1    16    1
     3     2    23    1
     4     2    26    1
     5     3    24    1
     6     3    26    1
     7     4    21    1
     8     4    27    1
     9     5    22    1
    10     5    28    1
    11     6    20    1
    12     6    38    1
    13     7    16    2
    14     8     9   ar
    15     8    10   ar
    16     8    13    1
    17     9    11   ar
    18     9    16    1
    19    10    12   ar
    20    10    17   ar
    21    11    14   ar
    22    11    15    1
    23    12    14   ar
    24    12    18   ar
    25    13    19   ar
    26    13    20   ar
    27    14    29    1
    28    15    30    1
    29    15    31    1
    30    17    21   ar
    31    17    32    1
    32    18    22   ar
    33    18    33    1
    34    19    23   ar
    35    19    34    1
    36    20    25   ar
    37    21    22   ar
    38    23    24   ar
    39    24    25   ar
    40    25    35    1
    41    26    36    1
    42    26    37    1
    43    27    39    1
    44    27    40    1
    45    27    41    1
    46    28    42    1
    47    28    43    1
    48    28    44    1
