@<TRIPOS>MOLECULE
IMPHY009906
 62 64 0 0 0
SMALL
GASTEIGER

@<TRIPOS>ATOM
      1 O           6.0010   -2.7500    0.0000 O.3     1  UNL1       -0.3401
      2 O           6.0010    0.2500    0.0000 O.3     1  UNL1       -0.3405
      3 O           4.2690   -2.7500    0.0000 O.3     1  UNL1       -0.3431
      4 O           4.2690   -1.7500    0.0000 O.3     1  UNL1       -0.3865
      5 O           7.7331    0.2500    0.0000 O.3     1  UNL1       -0.3484
      6 O           7.7331   -1.7500    0.0000 O.3     1  UNL1       -0.3841
      7 O           6.0010   -4.7500    0.0000 O.3     1  UNL1       -0.3841
      8 O           4.2690   -5.7500    0.0000 O.3     1  UNL1       -0.3864
      9 O           2.5369   -4.7500    0.0000 O.3     1  UNL1       -0.3866
     10 O           4.2690    1.2500    0.0000 O.3     1  UNL1       -0.3924
     11 O          10.3312    4.7500    0.0000 O.3     1  UNL1       -0.5033
     12 O           8.5991    5.7500    0.0000 O.3     1  UNL1       -0.5033
     13 C           6.0010   -1.7500    0.0000 C.3     1  UNL1        0.1206
     14 C           5.1350   -1.2500    0.0000 C.3     1  UNL1        0.1123
     15 C           6.8671   -1.2500    0.0000 C.3     1  UNL1        0.1345
     16 C           5.1350   -3.2500    0.0000 C.3     1  UNL1        0.1883
     17 C           5.1350   -0.2500    0.0000 C.3     1  UNL1        0.1130
     18 C           5.1350   -4.2500    0.0000 C.3     1  UNL1        0.1341
     19 C           4.2690   -4.7500    0.0000 C.3     1  UNL1        0.1140
     20 C           6.8671   -0.2500    0.0000 C.3     1  UNL1        0.1879
     21 C           3.4030   -4.2500    0.0000 C.3     1  UNL1        0.1095
     22 C           3.4030   -3.2500    0.0000 C.3     1  UNL1        0.0873
     23 C           4.2690    0.2500    0.0000 C.3     1  UNL1        0.0730
     24 C           2.5369   -2.7500    0.0000 C.3     1  UNL1       -0.0361
     25 C           7.7331    1.2500    0.0000 C.3     1  UNL1        0.0547
     26 C           8.5991    1.7500    0.0000 C.3     1  UNL1       -0.0039
     27 C           8.5991    2.7500    0.0000 C.ar    1  UNL1       -0.0415
     28 C           9.4651    3.2500    0.0000 C.ar    1  UNL1       -0.0133
     29 C           7.7331    3.2500    0.0000 C.ar    1  UNL1       -0.0548
     30 C           9.4651    4.2500    0.0000 C.ar    1  UNL1        0.1585
     31 C           7.7331    4.2500    0.0000 C.ar    1  UNL1       -0.0163
     32 C           8.5991    4.7500    0.0000 C.ar    1  UNL1        0.1582
     33 H           6.5380   -2.0600    0.0000 H       1  UNL1        0.0651
     34 H           5.1350   -1.8700    0.0000 H       1  UNL1        0.0647
     35 H           7.4040   -0.9400    0.0000 H       1  UNL1        0.0671
     36 H           5.1350   -2.6300    0.0000 H       1  UNL1        0.0938
     37 H           5.1350    0.3700    0.0000 H       1  UNL1        0.0647
     38 H           5.1350   -4.8700    0.0000 H       1  UNL1        0.0671
     39 H           3.7320   -5.0600    0.0000 H       1  UNL1        0.0648
     40 H           6.8671    0.3700    0.0000 H       1  UNL1        0.0937
     41 H           2.8660   -3.9400    0.0000 H       1  UNL1        0.0646
     42 H           3.4030   -2.6300    0.0000 H       1  UNL1        0.0621
     43 H           3.6584    0.3577    0.0000 H       1  UNL1        0.0584
     44 H           4.0569   -0.3326    0.0000 H       1  UNL1        0.0584
     45 H           2.8469   -2.2131    0.0000 H       1  UNL1        0.0255
     46 H           2.0000   -2.4400    0.0000 H       1  UNL1        0.0255
     47 H           2.2269   -3.2869    0.0000 H       1  UNL1        0.0255
     48 H           3.7320   -1.4400    0.0000 H       1  UNL1        0.2100
     49 H           8.2700   -1.4400    0.0000 H       1  UNL1        0.2101
     50 H           6.0010   -5.3700    0.0000 H       1  UNL1        0.2101
     51 H           3.7320   -6.0600    0.0000 H       1  UNL1        0.2100
     52 H           2.0000   -4.4400    0.0000 H       1  UNL1        0.2100
     53 H           7.5210    1.8326    0.0000 H       1  UNL1        0.0564
     54 H           7.1225    1.1423    0.0000 H       1  UNL1        0.0564
     55 H           3.7320    1.5600    0.0000 H       1  UNL1        0.2095
     56 H           8.8112    1.1674    0.0000 H       1  UNL1        0.0335
     57 H           9.2097    1.8577    0.0000 H       1  UNL1        0.0335
     58 H          10.0021    2.9400    0.0000 H       1  UNL1        0.0658
     59 H           7.1962    2.9400    0.0000 H       1  UNL1        0.0621
     60 H           7.1962    4.5600    0.0000 H       1  UNL1        0.0655
     61 H          10.8681    4.4400    0.0000 H       1  UNL1        0.2923
     62 H           8.0622    6.0600    0.0000 H       1  UNL1        0.2923
@<TRIPOS>BOND
     1     1    13    1
     2     1    16    1
     3     2    17    1
     4     2    20    1
     5     3    16    1
     6     3    22    1
     7     4    14    1
     8     4    48    1
     9     5    20    1
    10     5    25    1
    11     6    15    1
    12     6    49    1
    13     7    18    1
    14     7    50    1
    15     8    19    1
    16     8    51    1
    17     9    21    1
    18     9    52    1
    19    10    23    1
    20    10    55    1
    21    11    30    1
    22    11    61    1
    23    12    32    1
    24    12    62    1
    25    13    14    1
    26    13    15    1
    27    13    33    1
    28    14    17    1
    29    14    34    1
    30    15    20    1
    31    15    35    1
    32    16    18    1
    33    16    36    1
    34    17    23    1
    35    17    37    1
    36    18    19    1
    37    18    38    1
    38    19    21    1
    39    19    39    1
    40    20    40    1
    41    21    22    1
    42    21    41    1
    43    22    24    1
    44    22    42    1
    45    23    43    1
    46    23    44    1
    47    24    45    1
    48    24    46    1
    49    24    47    1
    50    25    26    1
    51    25    53    1
    52    25    54    1
    53    26    27    1
    54    26    56    1
    55    26    57    1
    56    27    28   ar
    57    27    29   ar
    58    28    30   ar
    59    28    58    1
    60    29    31   ar
    61    29    59    1
    62    30    32   ar
    63    31    32   ar
    64    31    60    1
