@<TRIPOS>MOLECULE
IMPHY004722
 40 43 0 0 0
SMALL
GASTEIGER

@<TRIPOS>ATOM
      1 O           6.3739    1.3137    0.0000 O.2     1  UNL1       -0.4511
      2 O           5.4558   -1.2347    0.0000 O.3     1  UNL1       -0.4460
      3 O           4.6037    0.3169    0.0000 O.3     1  UNL1       -0.3861
      4 O           8.9720   -0.1863    0.0000 O.2     1  UNL1       -0.2863
      5 O           9.8761    1.3106    0.0000 O.3     1  UNL1       -0.5027
      6 O           9.8919    3.3588    0.0000 O.3     1  UNL1       -0.5009
      7 O           7.2930   -4.3830    0.0000 O.3     1  UNL1       -0.5066
      8 O           8.1180    4.3830    0.0000 O.3     1  UNL1       -0.5031
      9 O           2.8718    0.3369    0.0000 O.3     1  UNL1       -0.4370
     10 O           3.7204   -1.1730    0.0000 O.2     1  UNL1       -0.2027
     11 C           7.2399   -0.1863    0.0000 C.ar    1  UNL1        0.0785
     12 C           6.3739    0.3137    0.0000 C.ar    1  UNL1        0.1976
     13 C           7.2560   -1.2278    0.0000 C.ar    1  UNL1        0.0313
     14 C           5.4639   -0.1931    0.0000 C.3     1  UNL1        0.3085
     15 C           8.1059    1.3137    0.0000 C.ar    1  UNL1        0.1097
     16 C           8.1059    0.3137    0.0000 C.ar    1  UNL1        0.2044
     17 C           6.3579   -1.7555    0.0000 C.ar    1  UNL1        0.1368
     18 C           7.2399    1.8137    0.0000 C.ar    1  UNL1        0.1464
     19 C           8.2079   -1.7484    0.0000 C.ar    1  UNL1       -0.0469
     20 C           9.0159    1.8206    0.0000 C.ar    1  UNL1        0.1766
     21 C           6.3496   -2.8405    0.0000 C.ar    1  UNL1        0.0223
     22 C           7.2238    2.8552    0.0000 C.ar    1  UNL1        0.0267
     23 C           9.0239    2.8622    0.0000 C.ar    1  UNL1        0.2015
     24 C           8.2246   -2.8333    0.0000 C.ar    1  UNL1       -0.0194
     25 C           7.2892   -3.3830    0.0000 C.ar    1  UNL1        0.1204
     26 C           8.1219    3.3830    0.0000 C.ar    1  UNL1        0.1655
     27 C           3.7319   -0.1731    0.0000 C.2     1  UNL1        0.5132
     28 C           2.0000   -0.1531    0.0000 C.3     1  UNL1        0.0851
     29 H           5.4722    0.4268    0.0000 H       1  UNL1        0.1298
     30 H           8.7387   -1.4281    0.0000 H       1  UNL1        0.0626
     31 H           5.8114   -3.1484    0.0000 H       1  UNL1        0.0691
     32 H           6.6834    3.1590    0.0000 H       1  UNL1        0.0692
     33 H           8.7651   -3.1370    0.0000 H       1  UNL1        0.0654
     34 H          10.4166    1.6144    0.0000 H       1  UNL1        0.2923
     35 H           9.8943    3.9788    0.0000 H       1  UNL1        0.2924
     36 H           7.5799    4.6909    0.0000 H       1  UNL1        0.2923
     37 H           7.8312   -4.6909    0.0000 H       1  UNL1        0.2921
     38 H           1.6962    0.3874    0.0000 H       1  UNL1        0.0662
     39 H           1.4595   -0.4568    0.0000 H       1  UNL1        0.0662
     40 H           2.3038   -0.6935    0.0000 H       1  UNL1        0.0662
@<TRIPOS>BOND
     1     1    12   ar
     2     1    18   ar
     3     2    14    1
     4     2    17    1
     5     3    14    1
     6     3    27    1
     7     4    16    2
     8     5    20    1
     9     5    34    1
    10     6    23    1
    11     6    35    1
    12     7    25    1
    13     7    37    1
    14     8    26    1
    15     8    36    1
    16     9    27    1
    17     9    28    1
    18    10    27    2
    19    11    12   ar
    20    11    13    1
    21    11    16   ar
    22    12    14    1
    23    13    17   ar
    24    13    19   ar
    25    14    29    1
    26    15    16   ar
    27    15    18   ar
    28    15    20   ar
    29    17    21   ar
    30    18    22   ar
    31    19    24   ar
    32    19    30    1
    33    20    23   ar
    34    21    25   ar
    35    21    31    1
    36    22    26   ar
    37    22    32    1
    38    23    26   ar
    39    24    25   ar
    40    24    33    1
    41    28    38    1
    42    28    39    1
    43    28    40    1
