@<TRIPOS>MOLECULE
IMPHY013585
 37 38 0 0 0
SMALL
GASTEIGER

@<TRIPOS>ATOM
      1 O           2.0000   -0.7500    0.0000 O.2     1  UNL1       -0.2924
      2 O           7.2622    1.2741    0.0000 O.2     1  UNL1       -0.2924
      3 C           4.5981    0.7500    0.0000 C.3     1  UNL1       -0.0207
      4 C           4.5981   -0.2500    0.0000 C.3     1  UNL1        0.0095
      5 C           3.7320    1.2500    0.0000 C.3     1  UNL1       -0.0328
      6 C           5.4920    1.2847    0.0000 C.3     1  UNL1        0.0140
      7 C           2.8660    0.7500    0.0000 C.3     1  UNL1        0.0130
      8 C           3.7320   -0.7500    0.0000 C.2     1  UNL1        0.0008
      9 C           5.4920   -0.7847    0.0000 C.2     1  UNL1       -0.0700
     10 C           2.8660   -0.2500    0.0000 C.2     1  UNL1        0.1600
     11 C           3.7320    2.2500    0.0000 C.3     1  UNL1       -0.0617
     12 C           6.3981    0.7708    0.0000 C.2     1  UNL1        0.1590
     13 C           6.3981   -0.2708    0.0000 C.2     1  UNL1       -0.0114
     14 C           3.7320   -1.7500    0.0000 C.2     1  UNL1       -0.0687
     15 C           7.2622   -0.7742    0.0000 C.3     1  UNL1       -0.0367
     16 C           2.8660   -2.2500    0.0000 C.3     1  UNL1       -0.0434
     17 C           4.5981   -2.2500    0.0000 C.3     1  UNL1       -0.0434
     18 H           5.3374    0.3307    0.0000 H       1  UNL1        0.0316
     19 H           4.5915   -1.1000    0.0000 H       1  UNL1        0.0395
     20 H           4.2690    1.5600    0.0000 H       1  UNL1        0.0305
     21 H           5.8856    1.7637    0.0000 H       1  UNL1        0.0348
     22 H           5.0874    1.7544    0.0000 H       1  UNL1        0.0348
     23 H           2.6540    1.3326    0.0000 H       1  UNL1        0.0348
     24 H           2.2554    0.6423    0.0000 H       1  UNL1        0.0348
     25 H           5.4848   -1.4046    0.0000 H       1  UNL1        0.0582
     26 H           4.3520    2.2500    0.0000 H       1  UNL1        0.0233
     27 H           3.7320    2.8700    0.0000 H       1  UNL1        0.0233
     28 H           3.1120    2.2500    0.0000 H       1  UNL1        0.0233
     29 H           6.9501   -1.3099    0.0000 H       1  UNL1        0.0278
     30 H           7.7979   -1.0862    0.0000 H       1  UNL1        0.0278
     31 H           7.5742   -0.2384    0.0000 H       1  UNL1        0.0278
     32 H           2.5560   -1.7131    0.0000 H       1  UNL1        0.0274
     33 H           2.3291   -2.5600    0.0000 H       1  UNL1        0.0274
     34 H           3.1760   -2.7869    0.0000 H       1  UNL1        0.0274
     35 H           4.2881   -2.7869    0.0000 H       1  UNL1        0.0274
     36 H           5.1350   -2.5600    0.0000 H       1  UNL1        0.0274
     37 H           4.9081   -1.7131    0.0000 H       1  UNL1        0.0274
@<TRIPOS>BOND
     1     1    10    2
     2     2    12    2
     3     3     4    1
     4     3     5    1
     5     3     6    1
     6     3    18    1
     7     4     8    1
     8     4     9    1
     9     4    19    1
    10     5     7    1
    11     5    11    1
    12     5    20    1
    13     6    12    1
    14     6    21    1
    15     6    22    1
    16     7    10    1
    17     7    23    1
    18     7    24    1
    19     8    10    1
    20     8    14    2
    21     9    13    2
    22     9    25    1
    23    11    26    1
    24    11    27    1
    25    11    28    1
    26    12    13    1
    27    13    15    1
    28    14    16    1
    29    14    17    1
    30    15    29    1
    31    15    30    1
    32    15    31    1
    33    16    32    1
    34    16    33    1
    35    16    34    1
    36    17    35    1
    37    17    36    1
    38    17    37    1
