@<TRIPOS>MOLECULE
IMPHY005003
 39 40 0 0 0
SMALL
GASTEIGER

@<TRIPOS>ATOM
      1 O           6.8671   -1.2500    0.0000 O.3     1  UNL1       -0.3396
      2 O           5.1350   -3.2500    0.0000 O.3     1  UNL1       -0.3864
      3 O           6.8671   -4.2500    0.0000 O.3     1  UNL1       -0.3864
      4 O           8.5991   -3.2500    0.0000 O.3     1  UNL1       -0.3841
      5 O           8.5991   -1.2500    0.0000 O.3     1  UNL1       -0.3649
      6 O           5.1350   -0.2500    0.0000 O.3     1  UNL1       -0.4585
      7 O           3.4030   -0.2500    0.0000 O.2     1  UNL1       -0.2450
      8 O           2.5369    3.2500    0.0000 O.3     1  UNL1       -0.5032
      9 O           6.0010    3.2500    0.0000 O.3     1  UNL1       -0.5032
     10 O           4.2690    4.2500    0.0000 O.3     1  UNL1       -0.5009
     11 C           6.0010   -2.7500    0.0000 C.3     1  UNL1        0.1129
     12 C           6.8671   -3.2500    0.0000 C.3     1  UNL1        0.1141
     13 C           6.0010   -1.7500    0.0000 C.3     1  UNL1        0.1240
     14 C           7.7331   -2.7500    0.0000 C.3     1  UNL1        0.1339
     15 C           7.7331   -1.7500    0.0000 C.3     1  UNL1        0.1854
     16 C           5.1350   -1.2500    0.0000 C.3     1  UNL1        0.1215
     17 C           4.2690    0.2500    0.0000 C.2     1  UNL1        0.3395
     18 C           4.2690    1.2500    0.0000 C.ar    1  UNL1        0.0661
     19 C           5.1350    1.7500    0.0000 C.ar    1  UNL1       -0.0023
     20 C           3.4030    1.7500    0.0000 C.ar    1  UNL1       -0.0023
     21 C           3.4030    2.7500    0.0000 C.ar    1  UNL1        0.1628
     22 C           5.1350    2.7500    0.0000 C.ar    1  UNL1        0.1628
     23 C           4.2690    3.2500    0.0000 C.ar    1  UNL1        0.2006
     24 H           6.0010   -3.3700    0.0000 H       1  UNL1        0.0647
     25 H           7.4040   -3.5600    0.0000 H       1  UNL1        0.0648
     26 H           6.0010   -1.1300    0.0000 H       1  UNL1        0.0658
     27 H           8.2700   -2.4400    0.0000 H       1  UNL1        0.0671
     28 H           7.7331   -1.1300    0.0000 H       1  UNL1        0.0935
     29 H           4.5244   -1.1423    0.0000 H       1  UNL1        0.0725
     30 H           4.9230   -1.8326    0.0000 H       1  UNL1        0.0725
     31 H           4.5981   -2.9400    0.0000 H       1  UNL1        0.2100
     32 H           7.4040   -4.5600    0.0000 H       1  UNL1        0.2100
     33 H           9.1360   -2.9400    0.0000 H       1  UNL1        0.2101
     34 H           8.5991   -0.6300    0.0000 H       1  UNL1        0.2126
     35 H           5.6720    1.4400    0.0000 H       1  UNL1        0.0663
     36 H           2.8660    1.4400    0.0000 H       1  UNL1        0.0663
     37 H           2.0000    2.9400    0.0000 H       1  UNL1        0.2923
     38 H           6.5380    2.9400    0.0000 H       1  UNL1        0.2923
     39 H           3.7320    4.5600    0.0000 H       1  UNL1        0.2924
@<TRIPOS>BOND
     1     1    13    1
     2     1    15    1
     3    11     2    1
     4     2    31    1
     5    12     3    1
     6     3    32    1
     7    14     4    1
     8     4    33    1
     9    15     5    1
    10     5    34    1
    11     6    16    1
    12     6    17    1
    13     7    17    2
    14     8    21    1
    15     8    37    1
    16     9    22    1
    17     9    38    1
    18    10    23    1
    19    10    39    1
    20    11    12    1
    21    11    13    1
    22    11    24    1
    23    12    14    1
    24    12    25    1
    25    13    16    1
    26    13    26    1
    27    14    15    1
    28    14    27    1
    29    15    28    1
    30    16    29    1
    31    16    30    1
    32    17    18    1
    33    18    19   ar
    34    18    20   ar
    35    19    22   ar
    36    19    35    1
    37    20    21   ar
    38    20    36    1
    39    21    23   ar
    40    22    23   ar
