@<TRIPOS>MOLECULE
IMPHY006057
 20 21 0 0 0
SMALL
GASTEIGER

@<TRIPOS>ATOM
      1 O           4.2690   -2.0000    0.0000 O.2     1  UNL1       -0.2853
      2 O           4.2690    2.0000    0.0000 O.2     1  UNL1       -0.2872
      3 N           2.5369   -1.0000    0.0000 N.pl3   1  UNL1       -0.3549
      4 C           5.1350   -0.5000    0.0000 C.ar    1  UNL1        0.0343
      5 C           5.1350    0.5000    0.0000 C.ar    1  UNL1        0.0326
      6 C           4.2690   -1.0000    0.0000 C.2     1  UNL1        0.2073
      7 C           4.2690    1.0000    0.0000 C.2     1  UNL1        0.1886
      8 C           3.4030   -0.5000    0.0000 C.2     1  UNL1        0.0762
      9 C           6.0290   -1.0347    0.0000 C.ar    1  UNL1       -0.0502
     10 C           6.0290    1.0347    0.0000 C.ar    1  UNL1       -0.0502
     11 C           3.4030    0.5000    0.0000 C.2     1  UNL1        0.0101
     12 C           6.9350   -0.5208    0.0000 C.ar    1  UNL1       -0.0610
     13 C           6.9350    0.5208    0.0000 C.ar    1  UNL1       -0.0610
     14 H           6.0218   -1.6546    0.0000 H       1  UNL1        0.0625
     15 H           6.0218    1.6546    0.0000 H       1  UNL1        0.0625
     16 H           2.8660    0.8100    0.0000 H       1  UNL1        0.0676
     17 H           7.4708   -0.8329    0.0000 H       1  UNL1        0.0618
     18 H           7.4708    0.8329    0.0000 H       1  UNL1        0.0618
     19 H           2.0000   -0.6900    0.0000 H       1  UNL1        0.1424
     20 H           2.5369   -1.6200    0.0000 H       1  UNL1        0.1424
@<TRIPOS>BOND
     1     1     6    2
     2     2     7    2
     3     3     8    1
     4     3    19    1
     5     3    20    1
     6     4     5   ar
     7     4     6    1
     8     4     9   ar
     9     5     7    1
    10     5    10   ar
    11     6     8    1
    12     7    11    1
    13     8    11    2
    14     9    12   ar
    15     9    14    1
    16    10    13   ar
    17    10    15    1
    18    11    16    1
    19    12    13   ar
    20    12    17    1
    21    13    18    1
