@<TRIPOS>MOLECULE
IMPHY017865
 42 44 0 0 0
SMALL
GASTEIGER

@<TRIPOS>ATOM
      1 O           4.7464    2.3838    0.0000 O.3     1  UNL1       -0.3672
      2 C           4.1484   -0.5808    0.0000 C.3     1  UNL1       -0.0083
      3 C           3.1636   -0.4071    0.0000 C.3     1  UNL1       -0.0303
      4 C           2.9844   -1.3994    0.0000 C.3     1  UNL1       -0.0314
      5 C           3.9774   -1.5744    0.0000 C.3     1  UNL1       -0.0419
      6 C           5.2242    0.4353    0.0000 C.3     1  UNL1        0.0705
      7 C           2.8216    0.5326    0.0000 C.3     1  UNL1       -0.0468
      8 C           5.4830    1.4012    0.0000 C.3     1  UNL1        0.0675
      9 C           3.4644    1.2986    0.0000 C.3     1  UNL1       -0.0237
     10 C           6.4959   -0.3594    0.0000 C.3     1  UNL1       -0.0236
     11 C           2.8088   -2.3838    0.0000 C.3     1  UNL1       -0.0595
     12 C           2.0000   -1.2237    0.0000 C.3     1  UNL1       -0.0595
     13 C           6.9147    1.2035    0.0000 C.3     1  UNL1       -0.0239
     14 C           7.2730    0.2700    0.0000 C.3     1  UNL1       -0.0479
     15 C           5.6469   -0.4710    0.0000 C.3     1  UNL1       -0.0355
     16 C           5.7419    2.3671    0.0000 C.3     1  UNL1       -0.0358
     17 H           4.9855   -0.7284    0.0000 H       1  UNL1        0.0331
     18 H           2.3265   -0.2595    0.0000 H       1  UNL1        0.0310
     19 H           3.8706   -2.1852    0.0000 H       1  UNL1        0.0274
     20 H           4.5883   -1.6804    0.0000 H       1  UNL1        0.0274
     21 H           2.4231    1.0075    0.0000 H       1  UNL1        0.0269
     22 H           2.2847    0.2226    0.0000 H       1  UNL1        0.0269
     23 H           3.5869    1.9064    0.0000 H       1  UNL1        0.0293
     24 H           2.9057    1.5674    0.0000 H       1  UNL1        0.0293
     25 H           6.1114   -0.8457    0.0000 H       1  UNL1        0.0293
     26 H           6.9369   -0.7952    0.0000 H       1  UNL1        0.0293
     27 H           2.1984   -2.2749    0.0000 H       1  UNL1        0.0235
     28 H           2.6999   -2.9942    0.0000 H       1  UNL1        0.0235
     29 H           3.4191   -2.4927    0.0000 H       1  UNL1        0.0235
     30 H           2.1089   -0.6133    0.0000 H       1  UNL1        0.0235
     31 H           1.3896   -1.1148    0.0000 H       1  UNL1        0.0235
     32 H           1.8911   -1.8340    0.0000 H       1  UNL1        0.0235
     33 H           7.5225    1.3259    0.0000 H       1  UNL1        0.0293
     34 H           6.8956    1.8232    0.0000 H       1  UNL1        0.0293
     35 H           7.6107   -0.2500    0.0000 H       1  UNL1        0.0267
     36 H           7.8255    0.5514    0.0000 H       1  UNL1        0.0267
     37 H           5.0850   -0.7331    0.0000 H       1  UNL1        0.0257
     38 H           5.9090   -1.0329    0.0000 H       1  UNL1        0.0257
     39 H           6.2088   -0.2089    0.0000 H       1  UNL1        0.0257
     40 H           6.3407    2.2067    0.0000 H       1  UNL1        0.0257
     41 H           5.9023    2.9660    0.0000 H       1  UNL1        0.0257
     42 H           5.1430    2.5276    0.0000 H       1  UNL1        0.0257
@<TRIPOS>BOND
     1     1     6    1
     2     1     8    1
     3     2     3    1
     4     2     5    1
     5     2     6    1
     6     2    17    1
     7     3     4    1
     8     3     7    1
     9     3    18    1
    10     4     5    1
    11     4    11    1
    12     4    12    1
    13     5    19    1
    14     5    20    1
    15     6    10    1
    16     6    15    1
    17     7     9    1
    18     7    21    1
    19     7    22    1
    20     8     9    1
    21     8    13    1
    22     8    16    1
    23     9    23    1
    24     9    24    1
    25    10    14    1
    26    10    25    1
    27    10    26    1
    28    11    27    1
    29    11    28    1
    30    11    29    1
    31    12    30    1
    32    12    31    1
    33    12    32    1
    34    13    14    1
    35    13    33    1
    36    13    34    1
    37    14    35    1
    38    14    36    1
    39    15    37    1
    40    15    38    1
    41    15    39    1
    42    16    40    1
    43    16    41    1
    44    16    42    1
