@<TRIPOS>MOLECULE
IMPHY012450
 55 59 0 0 0
SMALL
GASTEIGER

@<TRIPOS>ATOM
      1 O          10.0098    1.8924    0.0000 O.3     1  UNL1       -0.4568
      2 O           3.7438   -3.6874    0.0000 O.3     1  UNL1       -0.3887
      3 O           2.0456   -2.5420    0.0000 O.3     1  UNL1       -0.3800
      4 O           2.2043   -0.4998    0.0000 O.2     1  UNL1       -0.2727
      5 O          11.3600    0.8075    0.0000 O.2     1  UNL1       -0.2433
      6 N           8.0688   -0.4853    0.0000 N.3     1  UNL1       -0.2985
      7 N           3.9699   -0.6264    0.0000 N.am    1  UNL1       -0.2955
      8 N          12.6232    2.4708    0.0000 N.ar    1  UNL1       -0.3556
      9 C           6.2788    0.6460    0.0000 C.3     1  UNL1       -0.0091
     10 C           6.0200   -0.3200    0.0000 C.3     1  UNL1       -0.0092
     11 C           7.7104    0.4483    0.0000 C.3     1  UNL1        0.0180
     12 C           4.7990   -1.1856    0.0000 C.3     1  UNL1        0.0325
     13 C           5.5422    1.6286    0.0000 C.3     1  UNL1       -0.0417
     14 C           7.2917   -1.1146    0.0000 C.3     1  UNL1        0.0037
     15 C           4.2456    0.3348    0.0000 C.3     1  UNL1        0.0193
     16 C           8.3534    1.2678    0.0000 C.3     1  UNL1        0.0003
     17 C           4.7423   -2.2257    0.0000 C.3     1  UNL1       -0.0049
     18 C           9.0950   -0.6641    0.0000 C.3     1  UNL1        0.0025
     19 C           9.3834    1.1128    0.0000 C.3     1  UNL1        0.1061
     20 C           9.7567    0.1403    0.0000 C.3     1  UNL1       -0.0028
     21 C           3.8097   -2.6895    0.0000 C.3     1  UNL1        0.0913
     22 C           3.0268   -1.0686    0.0000 C.2     1  UNL1        0.2470
     23 C           2.9461   -2.1071    0.0000 C.3     1  UNL1        0.1567
     24 C          10.9980    1.7397    0.0000 C.2     1  UNL1        0.3559
     25 C          11.6244    2.5193    0.0000 C.ar    1  UNL1        0.1244
     26 C          11.3618    3.4842    0.0000 C.ar    1  UNL1       -0.0300
     27 C          12.9779    3.4058    0.0000 C.ar    1  UNL1        0.0024
     28 C          12.1984    4.0321    0.0000 C.ar    1  UNL1       -0.0436
     29 H           6.2833    0.0260    0.0000 H       1  UNL1        0.0331
     30 H           6.5223    0.0435    0.0000 H       1  UNL1        0.0331
     31 H           8.3235    0.3560    0.0000 H       1  UNL1        0.0467
     32 H           5.3418   -1.4852    0.0000 H       1  UNL1        0.0504
     33 H           5.8600    2.1609    0.0000 H       1  UNL1        0.0273
     34 H           4.9290    1.7205    0.0000 H       1  UNL1        0.0273
     35 H           6.9071   -1.6009    0.0000 H       1  UNL1        0.0430
     36 H           7.7326   -1.5505    0.0000 H       1  UNL1        0.0430
     37 H           4.2405    0.9548    0.0000 H       1  UNL1        0.0468
     38 H           3.6312    0.4186    0.0000 H       1  UNL1        0.0468
     39 H           8.5492    1.8561    0.0000 H       1  UNL1        0.0316
     40 H           7.8073    1.5614    0.0000 H       1  UNL1        0.0316
     41 H           4.9193   -2.8199    0.0000 H       1  UNL1        0.0309
     42 H           5.3580   -2.1530    0.0000 H       1  UNL1        0.0309
     43 H           8.8856   -1.2477    0.0000 H       1  UNL1        0.0428
     44 H           9.6341   -0.9702    0.0000 H       1  UNL1        0.0428
     45 H           9.9960    1.0170    0.0000 H       1  UNL1        0.0735
     46 H          10.1611   -0.3297    0.0000 H       1  UNL1        0.0313
     47 H          10.2890    0.4583    0.0000 H       1  UNL1        0.0313
     48 H           4.3257   -3.0333    0.0000 H       1  UNL1        0.0625
     49 H           2.9017   -2.7255    0.0000 H       1  UNL1        0.0717
     50 H           4.2591   -4.0321    0.0000 H       1  UNL1        0.2099
     51 H           2.0000   -3.1603    0.0000 H       1  UNL1        0.2105
     52 H          12.9629    1.9521    0.0000 H       1  UNL1        0.1655
     53 H          10.7821    3.7042    0.0000 H       1  UNL1        0.0641
     54 H          13.5762    3.5685    0.0000 H       1  UNL1        0.0807
     55 H          12.2284    4.6514    0.0000 H       1  UNL1        0.0633
@<TRIPOS>BOND
     1     1    19    1
     2     1    24    1
     3     2    21    1
     4     2    50    1
     5     3    23    1
     6     3    51    1
     7     4    22    2
     8     5    24    2
     9     6    11    1
    10     6    14    1
    11     6    18    1
    12     7    12    1
    13     7    15    1
    14     7    22   am
    15     8    25   ar
    16     8    27   ar
    17     8    52    1
    18     9    11    1
    19     9    13    1
    20     9    15    1
    21     9    29    1
    22    10    12    1
    23    10    13    1
    24    10    14    1
    25    10    30    1
    26    11    16    1
    27    11    31    1
    28    12    17    1
    29    12    32    1
    30    13    33    1
    31    13    34    1
    32    14    35    1
    33    14    36    1
    34    15    37    1
    35    15    38    1
    36    16    19    1
    37    16    39    1
    38    16    40    1
    39    17    21    1
    40    17    41    1
    41    17    42    1
    42    18    20    1
    43    18    43    1
    44    18    44    1
    45    19    20    1
    46    19    45    1
    47    20    46    1
    48    20    47    1
    49    21    23    1
    50    21    48    1
    51    22    23    1
    52    23    49    1
    53    24    25    1
    54    25    26   ar
    55    26    28   ar
    56    26    53    1
    57    27    28   ar
    58    27    54    1
    59    28    55    1
