@<TRIPOS>MOLECULE
IMPHY003610
 59 63 0 0 0
SMALL
GASTEIGER

@<TRIPOS>ATOM
      1 O           7.7683   -2.6988    0.0000 O.3     1  UNL1       -0.4636
      2 O           5.4862    2.1666    0.0000 O.3     1  UNL1       -0.4525
      3 O           3.7319    0.0942    0.0000 O.3     1  UNL1       -0.4568
      4 O           3.7319   -0.8996    0.0000 O.3     1  UNL1       -0.4570
      5 O           7.2560    2.1288    0.0000 O.2     1  UNL1       -0.2505
      6 O           7.1080   -4.2009    0.0000 O.2     1  UNL1       -0.2502
      7 O           3.2374    3.8553    0.0000 O.2     1  UNL1       -0.4706
      8 O           2.2086    1.3427    0.0000 O.2     1  UNL1       -0.2512
      9 O           2.0000   -0.8795    0.0000 O.2     1  UNL1       -0.2511
     10 C           6.3682   -1.4027    0.0000 C.3     1  UNL1        0.0284
     11 C           5.5021   -0.9027    0.0000 C.3     1  UNL1        0.0192
     12 C           5.5021    0.0973    0.0000 C.3     1  UNL1        0.0288
     13 C           6.3682    0.5973    0.0000 C.3     1  UNL1        0.0657
     14 C           7.2342   -0.9027    0.0000 C.3     1  UNL1       -0.0420
     15 C           6.3842   -2.4442    0.0000 C.3     1  UNL1        0.0837
     16 C           7.2342    0.0973    0.0000 C.3     1  UNL1       -0.0388
     17 C           4.5921    0.6042    0.0000 C.3     1  UNL1        0.1505
     18 C           4.5921   -1.4095    0.0000 C.3     1  UNL1        0.1253
     19 C           7.3837   -1.6050    0.0000 C.3     1  UNL1        0.0995
     20 C           4.6361   -0.4027    0.0000 C.3     1  UNL1       -0.0549
     21 C           4.5841    1.6458    0.0000 C.3     1  UNL1        0.1681
     22 C           5.4862   -2.9720    0.0000 C.2     1  UNL1       -0.0703
     23 C           6.3842    1.6388    0.0000 C.2     1  UNL1        0.3116
     24 C           4.5841   -2.4511    0.0000 C.2     1  UNL1       -0.0468
     25 C           7.0908   -3.2011    0.0000 C.2     1  UNL1        0.3147
     26 C           4.2384    2.5841    0.0000 C.ar    1  UNL1        0.0340
     27 C           2.8602    0.5841    0.0000 C.2     1  UNL1        0.3043
     28 C           2.8602   -1.3895    0.0000 C.2     1  UNL1        0.3045
     29 C           4.7944    3.4153    0.0000 C.ar    1  UNL1       -0.0171
     30 C           3.2761    2.8561    0.0000 C.ar    1  UNL1        0.0985
     31 C           2.0000    0.0741    0.0000 C.3     1  UNL1        0.0332
     32 C           4.1758    4.2009    0.0000 C.ar    1  UNL1        0.0921
     33 C           2.8486   -2.3894    0.0000 C.3     1  UNL1        0.0333
     34 H           6.2382   -0.4777    0.0000 H       1  UNL1        0.0353
     35 H           7.1075    1.0166    0.0000 H       1  UNL1        0.0420
     36 H           7.4462   -1.4853    0.0000 H       1  UNL1        0.0272
     37 H           7.8448   -0.7950    0.0000 H       1  UNL1        0.0272
     38 H           6.2620   -3.2854    0.0000 H       1  UNL1        0.0463
     39 H           7.8448   -0.0104    0.0000 H       1  UNL1        0.0273
     40 H           7.4462    0.6799    0.0000 H       1  UNL1        0.0273
     41 H           3.8519    1.0220    0.0000 H       1  UNL1        0.0781
     42 H           3.8519   -1.8274    0.0000 H       1  UNL1        0.0782
     43 H           7.9958   -1.5063    0.0000 H       1  UNL1        0.0703
     44 H           7.3950   -0.9851    0.0000 H       1  UNL1        0.0703
     45 H           4.3261    0.1342    0.0000 H       1  UNL1        0.0237
     46 H           4.0992   -0.7127    0.0000 H       1  UNL1        0.0237
     47 H           4.9461   -0.9396    0.0000 H       1  UNL1        0.0237
     48 H           3.7479    1.4933    0.0000 H       1  UNL1        0.0824
     49 H           5.4886   -3.5920    0.0000 H       1  UNL1        0.0578
     50 H           4.0460   -2.7591    0.0000 H       1  UNL1        0.0606
     51 H           5.4140    3.4393    0.0000 H       1  UNL1        0.0653
     52 H           2.7890    2.4725    0.0000 H       1  UNL1        0.1033
     53 H           1.6838    0.6075    0.0000 H       1  UNL1        0.0342
     54 H           1.4667   -0.2420    0.0000 H       1  UNL1        0.0342
     55 H           2.3162   -0.4592    0.0000 H       1  UNL1        0.0342
     56 H           4.3444    4.7976    0.0000 H       1  UNL1        0.1029
     57 H           2.2287   -2.3823    0.0000 H       1  UNL1        0.0342
     58 H           2.8414   -3.0094    0.0000 H       1  UNL1        0.0342
     59 H           3.4686   -2.3966    0.0000 H       1  UNL1        0.0342
@<TRIPOS>BOND
     1     1    19    1
     2     1    25    1
     3     2    21    1
     4     2    23    1
     5     3    17    1
     6     3    27    1
     7     4    18    1
     8     4    28    1
     9     5    23    2
    10     6    25    2
    11     7    30   ar
    12     7    32   ar
    13     8    27    2
    14     9    28    2
    15    10    11    1
    16    10    14    1
    17    10    15    1
    18    10    19    1
    19    11    12    1
    20    11    18    1
    21    11    34    1
    22    12    13    1
    23    12    17    1
    24    12    20    1
    25    13    16    1
    26    13    23    1
    27    13    35    1
    28    14    16    1
    29    14    36    1
    30    14    37    1
    31    15    22    1
    32    15    25    1
    33    15    38    1
    34    16    39    1
    35    16    40    1
    36    17    21    1
    37    17    41    1
    38    18    24    1
    39    18    42    1
    40    19    43    1
    41    19    44    1
    42    20    45    1
    43    20    46    1
    44    20    47    1
    45    21    26    1
    46    21    48    1
    47    22    24    2
    48    22    49    1
    49    24    50    1
    50    26    29   ar
    51    26    30   ar
    52    27    31    1
    53    28    33    1
    54    29    32   ar
    55    29    51    1
    56    30    52    1
    57    31    53    1
    58    31    54    1
    59    31    55    1
    60    32    56    1
    61    33    57    1
    62    33    58    1
    63    33    59    1
