@<TRIPOS>MOLECULE
IMPHY009594
 7 7 0 0 0
SMALL
GASTEIGER

@<TRIPOS>ATOM
      1 C           2.8660   -0.0000    0.0000 C.3     1  UNL1       -0.0165
      2 C           2.0000   -0.5000    0.0000 C.2     1  UNL1       -0.0839
      3 C           2.0000    0.5000    0.0000 C.2     1  UNL1       -0.0839
      4 H           3.2646   -0.4749    0.0000 H       1  UNL1        0.0350
      5 H           3.2646    0.4749    0.0000 H       1  UNL1        0.0350
      6 H           1.6900   -1.0369    0.0000 H       1  UNL1        0.0572
      7 H           1.6900    1.0369    0.0000 H       1  UNL1        0.0572
@<TRIPOS>BOND
     1     1     2    1
     2     1     3    1
     3     1     4    1
     4     1     5    1
     5     2     3    2
     6     2     6    1
     7     3     7    1
