@<TRIPOS>MOLECULE
IMPHY007245
 81 85 0 0 0
SMALL
GASTEIGER

@<TRIPOS>ATOM
      1 O           2.5357   -1.8922    0.0000 O.3     1  UNL1       -0.3886
      2 O           2.5519    0.1994    0.0000 O.3     1  UNL1       -0.3889
      3 O          11.4608    1.1943    0.0000 O.3     1  UNL1       -0.4802
      4 O           4.3500   -3.6701    0.0000 O.3     1  UNL1       -0.3944
      5 O          10.6064   -0.3123    0.0000 O.2     1  UNL1       -0.2504
      6 C           7.9288    0.1601    0.0000 C.3     1  UNL1       -0.0017
      7 C           7.0628   -0.3398    0.0000 C.3     1  UNL1       -0.0014
      8 C           5.2787   -1.3883    0.0000 C.3     1  UNL1       -0.0008
      9 C           8.8228    1.6948    0.0000 C.3     1  UNL1       -0.0031
     10 C           9.7288    1.1810    0.0000 C.3     1  UNL1        0.0741
     11 C           7.9288    1.1602    0.0000 C.2     1  UNL1       -0.0623
     12 C           6.1968    0.1601    0.0000 C.2     1  UNL1       -0.0592
     13 C           7.0789   -1.3814    0.0000 C.3     1  UNL1       -0.0423
     14 C           8.8228   -0.3745    0.0000 C.3     1  UNL1       -0.0421
     15 C           5.2868   -0.3467    0.0000 C.2     1  UNL1       -0.0604
     16 C           6.1808   -1.9091    0.0000 C.3     1  UNL1       -0.0424
     17 C           4.3433   -1.9380    0.0000 C.3     1  UNL1        0.0284
     18 C           9.7288    0.1393    0.0000 C.3     1  UNL1       -0.0359
     19 C           8.7977    2.7795    0.0000 C.3     1  UNL1       -0.0403
     20 C          10.6726    1.7162    0.0000 C.3     1  UNL1       -0.0362
     21 C           6.1968    1.1602    0.0000 C.3     1  UNL1       -0.0124
     22 C           9.7288    3.3364    0.0000 C.3     1  UNL1       -0.0343
     23 C           8.2709   -0.7795    0.0000 C.3     1  UNL1       -0.0550
     24 C           7.7056   -1.1059    0.0000 C.3     1  UNL1       -0.0550
     25 C           7.0628    1.6602    0.0000 C.2     1  UNL1       -0.0799
     26 C           4.3599    0.2174    0.0000 C.3     1  UNL1       -0.0023
     27 C           3.4037   -1.3955    0.0000 C.3     1  UNL1        0.0896
     28 C          10.6726    2.8012    0.0000 C.3     1  UNL1       -0.0468
     29 C           3.4120   -0.3106    0.0000 C.3     1  UNL1        0.0853
     30 C           5.6136   -2.3306    0.0000 C.3     1  UNL1       -0.0552
     31 C          10.5987    0.6877    0.0000 C.2     1  UNL1        0.3115
     32 C           3.8467   -2.8060    0.0000 C.3     1  UNL1        0.0528
     33 C           4.8466   -2.8021    0.0000 C.3     1  UNL1       -0.0542
     34 C          10.2188    4.2082    0.0000 C.3     1  UNL1       -0.0598
     35 C           9.2188    4.1966    0.0000 C.3     1  UNL1       -0.0598
     36 H           9.5522    2.1311    0.0000 H       1  UNL1        0.0357
     37 H           7.2969   -1.9618    0.0000 H       1  UNL1        0.0274
     38 H           7.6880   -1.2659    0.0000 H       1  UNL1        0.0274
     39 H           8.4182   -0.8443    0.0000 H       1  UNL1        0.0274
     40 H           9.2164   -0.8535    0.0000 H       1  UNL1        0.0274
     41 H           5.7835   -2.3851    0.0000 H       1  UNL1        0.0274
     42 H           6.5818   -2.3820    0.0000 H       1  UNL1        0.0274
     43 H           9.9379   -0.4444    0.0000 H       1  UNL1        0.0276
     44 H          10.3397    0.2454    0.0000 H       1  UNL1        0.0276
     45 H           8.5752    3.3582    0.0000 H       1  UNL1        0.0276
     46 H           8.1894    2.6593    0.0000 H       1  UNL1        0.0276
     47 H          10.8817    1.1325    0.0000 H       1  UNL1        0.0276
     48 H          11.2835    1.8223    0.0000 H       1  UNL1        0.0276
     49 H           5.9847    1.7428    0.0000 H       1  UNL1        0.0353
     50 H           5.5862    1.0525    0.0000 H       1  UNL1        0.0353
     51 H           7.6884   -0.9916    0.0000 H       1  UNL1        0.0238
     52 H           8.4830   -1.3621    0.0000 H       1  UNL1        0.0238
     53 H           8.8535   -0.5674    0.0000 H       1  UNL1        0.0238
     54 H           7.2306   -1.5044    0.0000 H       1  UNL1        0.0238
     55 H           8.1041   -1.5808    0.0000 H       1  UNL1        0.0238
     56 H           8.1805   -0.7074    0.0000 H       1  UNL1        0.0238
     57 H           7.0628    2.2802    0.0000 H       1  UNL1        0.0575
     58 H           4.7681    0.6840    0.0000 H       1  UNL1        0.0336
     59 H           3.9700    0.6994    0.0000 H       1  UNL1        0.0336
     60 H           3.4025   -2.0155    0.0000 H       1  UNL1        0.0626
     61 H          11.2835    2.6951    0.0000 H       1  UNL1        0.0271
     62 H          10.8817    3.3849    0.0000 H       1  UNL1        0.0271
     63 H           2.8722   -0.6154    0.0000 H       1  UNL1        0.0622
     64 H           5.0294   -2.5382    0.0000 H       1  UNL1        0.0238
     65 H           5.8212   -2.9148    0.0000 H       1  UNL1        0.0238
     66 H           6.1978   -2.1230    0.0000 H       1  UNL1        0.0238
     67 H           3.3702   -2.4093    0.0000 H       1  UNL1        0.0564
     68 H           3.3732   -3.2063    0.0000 H       1  UNL1        0.0564
     69 H           4.3109   -3.1142    0.0000 H       1  UNL1        0.0237
     70 H           5.1587   -3.3378    0.0000 H       1  UNL1        0.0237
     71 H           5.3824   -2.4900    0.0000 H       1  UNL1        0.0237
     72 H          10.7593    3.9044    0.0000 H       1  UNL1        0.0235
     73 H          10.5226    4.7487    0.0000 H       1  UNL1        0.0235
     74 H           9.6783    4.5120    0.0000 H       1  UNL1        0.0235
     75 H           9.7522    4.5128    0.0000 H       1  UNL1        0.0235
     76 H           8.9027    4.7299    0.0000 H       1  UNL1        0.0235
     77 H           8.6855    3.8804    0.0000 H       1  UNL1        0.0235
     78 H           2.0000   -1.5801    0.0000 H       1  UNL1        0.2099
     79 H           2.5590    0.8194    0.0000 H       1  UNL1        0.2099
     80 H          12.0001    0.8885    0.0000 H       1  UNL1        0.2951
     81 H           4.0421   -4.2082    0.0000 H       1  UNL1        0.2094
@<TRIPOS>BOND
     1    27     1    1
     2     1    78    1
     3    29     2    1
     4     2    79    1
     5     3    31    1
     6     3    80    1
     7     4    32    1
     8     4    81    1
     9     5    31    2
    10     6     7    1
    11     6    11    1
    12     6    14    1
    13     6    23    1
    14     7    12    1
    15     7    13    1
    16     7    24    1
    17     8    15    1
    18     8    16    1
    19     8    17    1
    20     8    30    1
    21     9    10    1
    22     9    11    1
    23     9    19    1
    24     9    36    1
    25    10    18    1
    26    10    20    1
    27    10    31    1
    28    11    25    2
    29    12    15    2
    30    12    21    1
    31    13    16    1
    32    13    37    1
    33    13    38    1
    34    14    18    1
    35    14    39    1
    36    14    40    1
    37    15    26    1
    38    16    41    1
    39    16    42    1
    40    17    27    1
    41    17    32    1
    42    17    33    1
    43    18    43    1
    44    18    44    1
    45    19    22    1
    46    19    45    1
    47    19    46    1
    48    20    28    1
    49    20    47    1
    50    20    48    1
    51    21    25    1
    52    21    49    1
    53    21    50    1
    54    22    28    1
    55    22    34    1
    56    22    35    1
    57    23    51    1
    58    23    52    1
    59    23    53    1
    60    24    54    1
    61    24    55    1
    62    24    56    1
    63    25    57    1
    64    26    29    1
    65    26    58    1
    66    26    59    1
    67    27    29    1
    68    27    60    1
    69    28    61    1
    70    28    62    1
    71    29    63    1
    72    30    64    1
    73    30    65    1
    74    30    66    1
    75    32    67    1
    76    32    68    1
    77    33    69    1
    78    33    70    1
    79    33    71    1
    80    34    72    1
    81    34    73    1
    82    34    74    1
    83    35    75    1
    84    35    76    1
    85    35    77    1
