@<TRIPOS>MOLECULE
IMPHY005153
 42 45 0 0 0
SMALL
GASTEIGER

@<TRIPOS>ATOM
      1 O           5.9507   -3.3698    0.0000 O.3     1  UNL1       -0.3640
      2 O           3.7230   -1.5228    0.0000 O.3     1  UNL1       -0.4566
      3 O           4.5447    1.6426    0.0000 O.3     1  UNL1       -0.4605
      4 O           2.0000   -1.0906    0.0000 O.2     1  UNL1       -0.2453
      5 O           6.1053    2.3941    0.0000 O.2     1  UNL1       -0.2512
      6 C           5.6146   -2.4338    0.0000 C.3     1  UNL1        0.1033
      7 C           5.4786   -1.4490    0.0000 C.3     1  UNL1        0.0495
      8 C           6.5929   -2.6104    0.0000 C.3     1  UNL1        0.0925
      9 C           7.0647   -1.7354    0.0000 C.3     1  UNL1       -0.0019
     10 C           6.3796   -1.0152    0.0000 C.2     1  UNL1       -0.0585
     11 C           4.5777   -1.0152    0.0000 C.3     1  UNL1        0.1229
     12 C           4.3551   -0.0402    0.0000 C.3     1  UNL1        0.0653
     13 C           4.6305   -2.2561    0.0000 C.3     1  UNL1       -0.0327
     14 C           6.6021   -0.0402    0.0000 C.2     1  UNL1       -0.0693
     15 C           4.9786    0.7416    0.0000 C.3     1  UNL1        0.1171
     16 C           5.9786    0.7416    0.0000 C.3     1  UNL1        0.0063
     17 C           3.3648    0.0463    0.0000 C.2     1  UNL1        0.0396
     18 C           2.9749   -0.8681    0.0000 C.2     1  UNL1        0.3354
     19 C           7.5770    0.1823    0.0000 C.3     1  UNL1       -0.0434
     20 C           2.8504    0.9039    0.0000 C.2     1  UNL1       -0.0882
     21 C           5.1081    2.4688    0.0000 C.2     1  UNL1        0.3042
     22 C           4.6742    3.3698    0.0000 C.3     1  UNL1        0.0332
     23 H           4.7916   -1.9495    0.0000 H       1  UNL1        0.0411
     24 H           7.2952   -3.0892    0.0000 H       1  UNL1        0.0628
     25 H           7.5765   -2.0854    0.0000 H       1  UNL1        0.0336
     26 H           7.4666   -1.2633    0.0000 H       1  UNL1        0.0336
     27 H           4.6147   -1.8643    0.0000 H       1  UNL1        0.0748
     28 H           4.0200    0.7409    0.0000 H       1  UNL1        0.0423
     29 H           4.7407   -1.6459    0.0000 H       1  UNL1        0.0258
     30 H           4.0204   -2.1459    0.0000 H       1  UNL1        0.0258
     31 H           4.5204   -2.8662    0.0000 H       1  UNL1        0.0258
     32 H           5.3085    1.2666    0.0000 H       1  UNL1        0.0744
     33 H           6.5372    1.0106    0.0000 H       1  UNL1        0.0346
     34 H           5.8407    1.3461    0.0000 H       1  UNL1        0.0346
     35 H           7.7150   -0.4222    0.0000 H       1  UNL1        0.0274
     36 H           8.1815    0.3203    0.0000 H       1  UNL1        0.0274
     37 H           7.4391    0.7868    0.0000 H       1  UNL1        0.0274
     38 H           3.1514    1.4459    0.0000 H       1  UNL1        0.0540
     39 H           2.2305    0.8935    0.0000 H       1  UNL1        0.0540
     40 H           5.2328    3.6388    0.0000 H       1  UNL1        0.0342
     41 H           4.4052    3.9284    0.0000 H       1  UNL1        0.0342
     42 H           4.1156    3.1008    0.0000 H       1  UNL1        0.0342
@<TRIPOS>BOND
     1     1     6    1
     2     1     8    1
     3     2    11    1
     4     2    18    1
     5    15     3    1
     6     3    21    1
     7     4    18    2
     8     5    21    2
     9     6     7    1
    10     6     8    1
    11     6    13    1
    12     7    10    1
    13     7    11    1
    14     7    23    1
    15     8     9    1
    16     8    24    1
    17     9    10    1
    18     9    25    1
    19     9    26    1
    20    10    14    2
    21    11    12    1
    22    11    27    1
    23    12    15    1
    24    12    17    1
    25    12    28    1
    26    13    29    1
    27    13    30    1
    28    13    31    1
    29    14    16    1
    30    14    19    1
    31    15    16    1
    32    15    32    1
    33    16    33    1
    34    16    34    1
    35    17    18    1
    36    17    20    2
    37    19    35    1
    38    19    36    1
    39    19    37    1
    40    20    38    1
    41    20    39    1
    42    21    22    1
    43    22    40    1
    44    22    41    1
    45    22    42    1
