@<TRIPOS>MOLECULE
IMPHY009737
 39 41 0 0 0
SMALL
GASTEIGER

@<TRIPOS>ATOM
      1 C           2.9986   -0.4478    0.0000 C.3     1  UNL1       -0.0222
      2 C           5.8153   -0.3626    0.0000 C.3     1  UNL1       -0.0255
      3 C           4.6752    0.5945    0.0000 C.3     1  UNL1       -0.0309
      4 C           4.4164   -0.3714    0.0000 C.3     1  UNL1       -0.0109
      5 C           5.7037   -1.3660    0.0000 C.3     1  UNL1       -0.0312
      6 C           3.1706   -1.4426    0.0000 C.3     1  UNL1       -0.0468
      7 C           4.5967    2.0552    0.0000 C.3     1  UNL1       -0.0457
      8 C           3.1954    1.2462    0.0000 C.2     1  UNL1       -0.0727
      9 C           4.9617   -2.0506    0.0000 C.3     1  UNL1       -0.0476
     10 C           3.6022    2.1598    0.0000 C.3     1  UNL1       -0.0314
     11 C           2.0000   -0.5016    0.0000 C.3     1  UNL1       -0.0587
     12 C           3.9526   -2.0811    0.0000 C.3     1  UNL1       -0.0520
     13 C           6.7035   -1.3854    0.0000 C.3     1  UNL1       -0.0595
     14 C           6.3119   -2.1598    0.0000 C.3     1  UNL1       -0.0595
     15 C           2.2173    1.0383    0.0000 C.2     1  UNL1       -0.0992
     16 H           6.3909   -0.1322    0.0000 H       1  UNL1        0.0315
     17 H           5.2299    0.8714    0.0000 H       1  UNL1        0.0309
     18 H           3.8542   -0.1100    0.0000 H       1  UNL1        0.0354
     19 H           2.5546   -1.3720    0.0000 H       1  UNL1        0.0271
     20 H           2.9295   -2.0138    0.0000 H       1  UNL1        0.0271
     21 H           5.2167    2.0558    0.0000 H       1  UNL1        0.0271
     22 H           4.6289    2.6744    0.0000 H       1  UNL1        0.0271
     23 H           4.8053   -2.6505    0.0000 H       1  UNL1        0.0271
     24 H           5.4934   -2.3695    0.0000 H       1  UNL1        0.0271
     25 H           3.7311    2.7662    0.0000 H       1  UNL1        0.0310
     26 H           3.0125    2.3514    0.0000 H       1  UNL1        0.0310
     27 H           1.9667    0.1175    0.0000 H       1  UNL1        0.0235
     28 H           1.3809   -0.5349    0.0000 H       1  UNL1        0.0235
     29 H           2.0333   -1.1207    0.0000 H       1  UNL1        0.0235
     30 H           3.4412   -2.4316    0.0000 H       1  UNL1        0.0266
     31 H           4.1450   -2.6705    0.0000 H       1  UNL1        0.0266
     32 H           6.6915   -2.0053    0.0000 H       1  UNL1        0.0235
     33 H           7.3234   -1.3974    0.0000 H       1  UNL1        0.0235
     34 H           6.7156   -0.7655    0.0000 H       1  UNL1        0.0235
     35 H           5.8198   -2.5369    0.0000 H       1  UNL1        0.0235
     36 H           6.6890   -2.6519    0.0000 H       1  UNL1        0.0235
     37 H           6.8041   -1.7827    0.0000 H       1  UNL1        0.0235
     38 H           1.8024    1.4991    0.0000 H       1  UNL1        0.0534
     39 H           2.0257    0.4487    0.0000 H       1  UNL1        0.0534
@<TRIPOS>BOND
     1     1     3    1
     2     1     4    1
     3     1     6    1
     4     1    11    1
     5     2     3    1
     6     2     4    1
     7     2     5    1
     8     2    16    1
     9     3     7    1
    10     3    17    1
    11     4     8    1
    12     4    18    1
    13     5     9    1
    14     5    13    1
    15     5    14    1
    16     6    12    1
    17     6    19    1
    18     6    20    1
    19     7    10    1
    20     7    21    1
    21     7    22    1
    22     8    10    1
    23     8    15    2
    24     9    12    1
    25     9    23    1
    26     9    24    1
    27    10    25    1
    28    10    26    1
    29    11    27    1
    30    11    28    1
    31    11    29    1
    32    12    30    1
    33    12    31    1
    34    13    32    1
    35    13    33    1
    36    13    34    1
    37    14    35    1
    38    14    36    1
    39    14    37    1
    40    15    38    1
    41    15    39    1
