@<TRIPOS>MOLECULE
IMPHY009942
 50 56 0 0 0
SMALL
GASTEIGER

@<TRIPOS>ATOM
      1 O           5.2699   -3.0030    0.0000 O.3     1  UNL1       -0.3663
      2 O           7.8436    0.5806    0.0000 O.3     1  UNL1       -0.4677
      3 O           6.9776    2.0806    0.0000 O.2     1  UNL1       -0.2505
      4 N           3.4695   -0.9263    0.0000 N.3     1  UNL1       -0.2953
      5 N           5.0363    2.0524    0.0000 N.pl3   1  UNL1       -0.3364
      6 C           5.2455   -0.9194    0.0000 C.3     1  UNL1        0.0168
      7 C           4.3795    0.5806    0.0000 C.3     1  UNL1        0.0366
      8 C           4.3795   -0.4194    0.0000 C.3     1  UNL1        0.0303
      9 C           5.2455    1.0806    0.0000 C.3     1  UNL1        0.0561
     10 C           5.2616   -1.9609    0.0000 C.3     1  UNL1        0.0935
     11 C           6.1115   -0.4194    0.0000 C.3     1  UNL1       -0.0285
     12 C           6.1115    0.5806    0.0000 C.3     1  UNL1        0.0790
     13 C           4.8455   -0.3194    0.0000 C.3     1  UNL1       -0.0415
     14 C           4.8455    0.4806    0.0000 C.3     1  UNL1       -0.0294
     15 C           4.3635   -2.4887    0.0000 C.3     1  UNL1        0.0984
     16 C           3.3964    0.7266    0.0000 C.3     1  UNL1       -0.0270
     17 C           3.4614   -1.9678    0.0000 C.3     1  UNL1        0.0280
     18 C           2.8827   -0.1242    0.0000 C.3     1  UNL1        0.0002
     19 C           3.6425    1.2477    0.0000 C.ar    1  UNL1       -0.0168
     20 C           4.0476    2.1555    0.0000 C.ar    1  UNL1        0.0314
     21 C           6.9776    1.0806    0.0000 C.2     1  UNL1        0.3121
     22 C           2.6144    1.1245    0.0000 C.ar    1  UNL1       -0.0562
     23 C           3.4527    3.0030    0.0000 C.ar    1  UNL1       -0.0406
     24 C           2.0000    1.9580    0.0000 C.ar    1  UNL1       -0.0614
     25 C           2.4220    2.9036    0.0000 C.ar    1  UNL1       -0.0600
     26 C           8.7096    1.0806    0.0000 C.3     1  UNL1        0.0817
     27 H           4.3795   -1.2694    0.0000 H       1  UNL1        0.0478
     28 H           5.8815   -1.9537    0.0000 H       1  UNL1        0.0628
     29 H           6.3236   -1.0020    0.0000 H       1  UNL1        0.0280
     30 H           6.7221   -0.3117    0.0000 H       1  UNL1        0.0280
     31 H           6.1115    1.2006    0.0000 H       1  UNL1        0.0435
     32 H           4.2585   -0.1199    0.0000 H       1  UNL1        0.0273
     33 H           5.4389   -0.1397    0.0000 H       1  UNL1        0.0273
     34 H           4.4677    0.9722    0.0000 H       1  UNL1        0.0286
     35 H           5.4389    0.3009    0.0000 H       1  UNL1        0.0286
     36 H           4.0555   -3.0268    0.0000 H       1  UNL1        0.0635
     37 H           3.5674    1.3225    0.0000 H       1  UNL1        0.0287
     38 H           2.8281    0.9744    0.0000 H       1  UNL1        0.0287
     39 H           2.8514   -1.8570    0.0000 H       1  UNL1        0.0453
     40 H           3.2479   -2.5499    0.0000 H       1  UNL1        0.0453
     41 H           2.3987    0.2634    0.0000 H       1  UNL1        0.0427
     42 H           2.4348   -0.5529    0.0000 H       1  UNL1        0.0427
     43 H           5.4504    2.5139    0.0000 H       1  UNL1        0.1467
     44 H           2.3683    0.5554    0.0000 H       1  UNL1        0.0621
     45 H           3.7119    3.5662    0.0000 H       1  UNL1        0.0636
     46 H           1.3836    1.8913    0.0000 H       1  UNL1        0.0618
     47 H           2.0599    3.4069    0.0000 H       1  UNL1        0.0618
     48 H           9.0196    0.5437    0.0000 H       1  UNL1        0.0661
     49 H           9.2465    1.3906    0.0000 H       1  UNL1        0.0661
     50 H           8.3996    1.6175    0.0000 H       1  UNL1        0.0661
@<TRIPOS>BOND
     1    10     1    1
     2    15     1    1
     3     2    21    1
     4     2    26    1
     5     3    21    2
     6     4     8    1
     7     4    17    1
     8     4    18    1
     9     9     5    1
    10     5    20    1
    11     5    43    1
    12     6     8    1
    13     6    10    1
    14     6    11    1
    15     6    13    1
    16     7     8    1
    17     7     9    1
    18     7    16    1
    19     7    19    1
    20     8    27    1
    21     9    12    1
    22     9    14    1
    23    10    15    1
    24    10    28    1
    25    11    12    1
    26    11    29    1
    27    11    30    1
    28    12    21    1
    29    12    31    1
    30    13    14    1
    31    13    32    1
    32    13    33    1
    33    14    34    1
    34    14    35    1
    35    15    17    1
    36    15    36    1
    37    16    18    1
    38    16    37    1
    39    16    38    1
    40    17    39    1
    41    17    40    1
    42    18    41    1
    43    18    42    1
    44    19    20   ar
    45    19    22   ar
    46    20    23   ar
    47    22    24   ar
    48    22    44    1
    49    23    25   ar
    50    23    45    1
    51    24    25   ar
    52    24    46    1
    53    25    47    1
    54    26    48    1
    55    26    49    1
    56    26    50    1
