@<TRIPOS>MOLECULE
IMPHY016288
 45 44 0 0 0
SMALL
GASTEIGER

@<TRIPOS>ATOM
      1 O           2.5369    0.7500    0.0000 O.3     1  UNL1       -0.3921
      2 C           7.7331    0.7500    0.0000 C.3     1  UNL1       -0.0531
      3 C           8.5991    0.2500    0.0000 C.3     1  UNL1       -0.0531
      4 C           6.8671    0.2500    0.0000 C.3     1  UNL1       -0.0531
      5 C           9.4651    0.7500    0.0000 C.3     1  UNL1       -0.0531
      6 C           6.0010    0.7500    0.0000 C.3     1  UNL1       -0.0530
      7 C          10.3312    0.2500    0.0000 C.3     1  UNL1       -0.0531
      8 C           5.1350    0.2500    0.0000 C.3     1  UNL1       -0.0507
      9 C          11.1972    0.7500    0.0000 C.3     1  UNL1       -0.0531
     10 C           4.2690    0.7500    0.0000 C.3     1  UNL1       -0.0271
     11 C          12.0632    0.2500    0.0000 C.3     1  UNL1       -0.0533
     12 C           3.4030    0.2500    0.0000 C.3     1  UNL1        0.0524
     13 C          12.9292    0.7500    0.0000 C.3     1  UNL1       -0.0559
     14 C           3.4030   -0.7500    0.0000 C.3     1  UNL1       -0.0389
     15 C          13.7953    0.2500    0.0000 C.3     1  UNL1       -0.0653
     16 H           8.1316    1.2250    0.0000 H       1  UNL1        0.0265
     17 H           7.3346    1.2250    0.0000 H       1  UNL1        0.0265
     18 H           8.2006   -0.2249    0.0000 H       1  UNL1        0.0265
     19 H           8.9976   -0.2249    0.0000 H       1  UNL1        0.0265
     20 H           6.4685   -0.2249    0.0000 H       1  UNL1        0.0265
     21 H           7.2656   -0.2249    0.0000 H       1  UNL1        0.0265
     22 H           9.8637    1.2250    0.0000 H       1  UNL1        0.0265
     23 H           9.0666    1.2250    0.0000 H       1  UNL1        0.0265
     24 H           6.3996    1.2250    0.0000 H       1  UNL1        0.0265
     25 H           5.6025    1.2250    0.0000 H       1  UNL1        0.0265
     26 H           9.9326   -0.2249    0.0000 H       1  UNL1        0.0265
     27 H          10.7297   -0.2249    0.0000 H       1  UNL1        0.0265
     28 H           4.7365   -0.2249    0.0000 H       1  UNL1        0.0266
     29 H           5.5335   -0.2249    0.0000 H       1  UNL1        0.0266
     30 H          11.5957    1.2250    0.0000 H       1  UNL1        0.0265
     31 H          10.7987    1.2250    0.0000 H       1  UNL1        0.0265
     32 H           4.6675    1.2250    0.0000 H       1  UNL1        0.0290
     33 H           3.8705    1.2250    0.0000 H       1  UNL1        0.0290
     34 H          11.6647   -0.2249    0.0000 H       1  UNL1        0.0265
     35 H          12.4617   -0.2249    0.0000 H       1  UNL1        0.0265
     36 H           3.4030    0.8700    0.0000 H       1  UNL1        0.0590
     37 H          13.3278    1.2250    0.0000 H       1  UNL1        0.0263
     38 H          12.5307    1.2250    0.0000 H       1  UNL1        0.0263
     39 H           2.7830   -0.7500    0.0000 H       1  UNL1        0.0254
     40 H           3.4030   -1.3700    0.0000 H       1  UNL1        0.0254
     41 H           4.0230   -0.7500    0.0000 H       1  UNL1        0.0254
     42 H          13.4853   -0.2869    0.0000 H       1  UNL1        0.0230
     43 H          14.3322   -0.0600    0.0000 H       1  UNL1        0.0230
     44 H          14.1053    0.7869    0.0000 H       1  UNL1        0.0230
     45 H           2.0000    0.4400    0.0000 H       1  UNL1        0.2098
@<TRIPOS>BOND
     1     1    12    1
     2     1    45    1
     3     2     3    1
     4     2     4    1
     5     2    16    1
     6     2    17    1
     7     3     5    1
     8     3    18    1
     9     3    19    1
    10     4     6    1
    11     4    20    1
    12     4    21    1
    13     5     7    1
    14     5    22    1
    15     5    23    1
    16     6     8    1
    17     6    24    1
    18     6    25    1
    19     7     9    1
    20     7    26    1
    21     7    27    1
    22     8    10    1
    23     8    28    1
    24     8    29    1
    25     9    11    1
    26     9    30    1
    27     9    31    1
    28    10    12    1
    29    10    32    1
    30    10    33    1
    31    11    13    1
    32    11    34    1
    33    11    35    1
    34    12    14    1
    35    12    36    1
    36    13    15    1
    37    13    37    1
    38    13    38    1
    39    14    39    1
    40    14    40    1
    41    14    41    1
    42    15    42    1
    43    15    43    1
    44    15    44    1
