@<TRIPOS>MOLECULE
IMPHY005638
 54 55 0 0 0
SMALL
GASTEIGER

@<TRIPOS>ATOM
      1 O          10.3312    0.1550    0.0000 O.3     1  UNL1       -0.3302
      2 O           8.5991   -1.8450    0.0000 O.3     1  UNL1       -0.3864
      3 O          10.3312   -2.8450    0.0000 O.3     1  UNL1       -0.3864
      4 O          12.0632    0.1550    0.0000 O.3     1  UNL1       -0.4536
      5 O          12.0632   -1.8450    0.0000 O.3     1  UNL1       -0.3829
      6 O           7.7331   -0.3450    0.0000 O.3     1  UNL1       -0.4619
      7 O           4.6350   -0.7110    0.0000 O.3     1  UNL1       -0.3878
      8 O           6.8671    1.1550    0.0000 O.2     1  UNL1       -0.2507
      9 O          11.1972    2.6550    0.0000 O.2     1  UNL1       -0.4642
     10 O          13.7953    1.1550    0.0000 O.2     1  UNL1       -0.2838
     11 O           2.5369    0.6550    0.0000 O.3     1  UNL1       -0.4805
     12 O           3.4030   -0.8450    0.0000 O.2     1  UNL1       -0.2509
     13 C           9.4651   -1.3450    0.0000 C.3     1  UNL1        0.1130
     14 C          10.3312   -1.8450    0.0000 C.3     1  UNL1        0.1152
     15 C           9.4651   -0.3450    0.0000 C.3     1  UNL1        0.1250
     16 C          11.1972   -1.3450    0.0000 C.3     1  UNL1        0.1454
     17 C          11.1972   -0.3450    0.0000 C.3     1  UNL1        0.2312
     18 C           8.5991    0.1550    0.0000 C.3     1  UNL1        0.1212
     19 C           5.1350    0.1550    0.0000 C.3     1  UNL1        0.0834
     20 C           6.0010   -0.3450    0.0000 C.3     1  UNL1        0.0739
     21 C           6.8671    0.1550    0.0000 C.2     1  UNL1        0.3099
     22 C          12.0632    1.1550    0.0000 C.ar    1  UNL1        0.2079
     23 C           4.2690    0.6550    0.0000 C.3     1  UNL1        0.0738
     24 C           5.6350    1.0210    0.0000 C.3     1  UNL1       -0.0350
     25 C          11.1972    1.6550    0.0000 C.ar    1  UNL1        0.1470
     26 C          12.9292    1.6550    0.0000 C.ar    1  UNL1        0.2266
     27 C           3.4030    0.1550    0.0000 C.2     1  UNL1        0.3075
     28 C          10.3312    1.1550    0.0000 C.3     1  UNL1       -0.0026
     29 C          12.9292    2.6550    0.0000 C.ar    1  UNL1        0.0237
     30 C          12.0632    3.1550    0.0000 C.ar    1  UNL1        0.0959
     31 H           9.4651   -1.9650    0.0000 H       1  UNL1        0.0647
     32 H          10.8681   -2.1550    0.0000 H       1  UNL1        0.0648
     33 H           9.4651    0.2750    0.0000 H       1  UNL1        0.0658
     34 H          11.7341   -1.0350    0.0000 H       1  UNL1        0.0683
     35 H          11.1972    0.2750    0.0000 H       1  UNL1        0.1084
     36 H           8.9976    0.6299    0.0000 H       1  UNL1        0.0724
     37 H           8.2006    0.6299    0.0000 H       1  UNL1        0.0724
     38 H           8.5991   -2.4650    0.0000 H       1  UNL1        0.2100
     39 H           9.7942   -3.1550    0.0000 H       1  UNL1        0.2100
     40 H          12.0632   -2.4650    0.0000 H       1  UNL1        0.2102
     41 H           5.6025   -0.8199    0.0000 H       1  UNL1        0.0406
     42 H           6.3996   -0.8199    0.0000 H       1  UNL1        0.0406
     43 H           4.6675    1.1300    0.0000 H       1  UNL1        0.0406
     44 H           3.8705    1.1300    0.0000 H       1  UNL1        0.0406
     45 H           6.1720    0.7110    0.0000 H       1  UNL1        0.0257
     46 H           5.9450    1.5580    0.0000 H       1  UNL1        0.0257
     47 H           5.0981    1.3310    0.0000 H       1  UNL1        0.0257
     48 H           4.9450   -1.2480    0.0000 H       1  UNL1        0.2102
     49 H          10.0212    1.6919    0.0000 H       1  UNL1        0.0309
     50 H           9.7942    0.8450    0.0000 H       1  UNL1        0.0309
     51 H          10.6412    0.6181    0.0000 H       1  UNL1        0.0309
     52 H          13.4662    2.9650    0.0000 H       1  UNL1        0.0688
     53 H          12.0632    3.7750    0.0000 H       1  UNL1        0.1030
     54 H           2.0000    0.3450    0.0000 H       1  UNL1        0.2951
@<TRIPOS>BOND
     1     1    15    1
     2     1    17    1
     3    13     2    1
     4     2    38    1
     5    14     3    1
     6     3    39    1
     7    17     4    1
     8     4    22    1
     9    16     5    1
    10     5    40    1
    11     6    18    1
    12     6    21    1
    13     7    19    1
    14     7    48    1
    15     8    21    2
    16     9    25   ar
    17     9    30   ar
    18    10    26    2
    19    11    27    1
    20    11    54    1
    21    12    27    2
    22    13    14    1
    23    13    15    1
    24    13    31    1
    25    14    16    1
    26    14    32    1
    27    15    18    1
    28    15    33    1
    29    16    17    1
    30    16    34    1
    31    17    35    1
    32    18    36    1
    33    18    37    1
    34    19    20    1
    35    19    23    1
    36    19    24    1
    37    20    21    1
    38    20    41    1
    39    20    42    1
    40    22    25   ar
    41    22    26   ar
    42    23    27    1
    43    23    43    1
    44    23    44    1
    45    24    45    1
    46    24    46    1
    47    24    47    1
    48    25    28    1
    49    26    29   ar
    50    28    49    1
    51    28    50    1
    52    28    51    1
    53    29    30   ar
    54    29    52    1
    55    30    53    1
