@<TRIPOS>MOLECULE
IMPHY012870
 76 80 0 0 0
SMALL
GASTEIGER

@<TRIPOS>ATOM
      1 O           8.1301   -2.4050    0.0000 O.3     1  UNL1       -0.3378
      2 O           6.3981   -2.4050    0.0000 O.3     1  UNL1       -0.3431
      3 O           7.2641    0.0950    0.0000 O.3     1  UNL1       -0.3074
      4 O           9.8622   -1.4050    0.0000 O.3     1  UNL1       -0.3863
      5 O           8.1301   -4.4050    0.0000 O.3     1  UNL1       -0.3841
      6 O           6.3981   -1.4050    0.0000 O.3     1  UNL1       -0.3518
      7 O           6.3981   -5.4050    0.0000 O.3     1  UNL1       -0.3864
      8 O           4.6660   -4.4050    0.0000 O.3     1  UNL1       -0.3866
      9 O           8.1301    1.5950    0.0000 O.3     1  UNL1       -0.4532
     10 O           9.8622    0.5950    0.0000 O.3     1  UNL1       -0.3829
     11 O           6.3981    3.5950    0.0000 O.2     1  UNL1       -0.4507
     12 O           6.3981    0.5950    0.0000 O.2     1  UNL1       -0.2830
     13 O           4.6497    0.5604    0.0000 O.3     1  UNL1       -0.5058
     14 O           2.8680    3.6192    0.0000 O.3     1  UNL1       -0.4949
     15 O          10.7282    3.0950    0.0000 O.3     1  UNL1       -0.5033
     16 O          10.7282    5.0950    0.0000 O.3     1  UNL1       -0.5033
     17 C           8.1301   -1.4050    0.0000 C.3     1  UNL1        0.1409
     18 C           7.2641   -2.9050    0.0000 C.3     1  UNL1        0.1884
     19 C           8.9962   -0.9050    0.0000 C.3     1  UNL1        0.1178
     20 C           7.2641   -3.9050    0.0000 C.3     1  UNL1        0.1341
     21 C           6.3981   -4.4050    0.0000 C.3     1  UNL1        0.1140
     22 C           5.5320   -3.9050    0.0000 C.3     1  UNL1        0.1095
     23 C           8.9962    0.0950    0.0000 C.3     1  UNL1        0.1456
     24 C           5.5320   -2.9050    0.0000 C.3     1  UNL1        0.0873
     25 C           7.2641   -0.9050    0.0000 C.3     1  UNL1        0.1915
     26 C           8.1301    0.5950    0.0000 C.3     1  UNL1        0.2329
     27 C           4.6660   -2.4050    0.0000 C.3     1  UNL1       -0.0361
     28 C           7.2641    2.0950    0.0000 C.ar    1  UNL1        0.2138
     29 C           5.5320   -0.9050    0.0000 C.3     1  UNL1        0.0395
     30 C           7.2641    3.0950    0.0000 C.ar    1  UNL1        0.1810
     31 C           6.3981    1.5950    0.0000 C.ar    1  UNL1        0.2382
     32 C           5.5320    2.0950    0.0000 C.ar    1  UNL1        0.1092
     33 C           5.5320    3.0950    0.0000 C.ar    1  UNL1        0.1465
     34 C           8.1301    3.5950    0.0000 C.ar    1  UNL1        0.0247
     35 C           4.6381    1.5603    0.0000 C.ar    1  UNL1        0.1348
     36 C           4.6381    3.6297    0.0000 C.ar    1  UNL1        0.0233
     37 C           8.9962    3.0950    0.0000 C.ar    1  UNL1       -0.0057
     38 C           8.1301    4.5950    0.0000 C.ar    1  UNL1       -0.0473
     39 C           3.7320    2.0742    0.0000 C.ar    1  UNL1        0.0225
     40 C           3.7320    3.1158    0.0000 C.ar    1  UNL1        0.1271
     41 C           9.8622    3.5950    0.0000 C.ar    1  UNL1        0.1589
     42 C           8.9962    5.0950    0.0000 C.ar    1  UNL1       -0.0159
     43 C           9.8622    4.5950    0.0000 C.ar    1  UNL1        0.1583
     44 C           2.0000    3.1225    0.0000 C.3     1  UNL1        0.0788
     45 H           8.6671   -1.7150    0.0000 H       1  UNL1        0.0675
     46 H           7.2641   -2.2850    0.0000 H       1  UNL1        0.0938
     47 H           9.5331   -0.5950    0.0000 H       1  UNL1        0.0649
     48 H           7.8010   -3.5950    0.0000 H       1  UNL1        0.0671
     49 H           6.9350   -4.7150    0.0000 H       1  UNL1        0.0648
     50 H           4.9951   -3.5950    0.0000 H       1  UNL1        0.0646
     51 H           9.5331   -0.2150    0.0000 H       1  UNL1        0.0683
     52 H           5.5320   -2.2850    0.0000 H       1  UNL1        0.0621
     53 H           7.2641   -1.5250    0.0000 H       1  UNL1        0.0939
     54 H           8.6671    0.9050    0.0000 H       1  UNL1        0.1085
     55 H           4.9760   -1.8681    0.0000 H       1  UNL1        0.0255
     56 H           4.1291   -2.0950    0.0000 H       1  UNL1        0.0255
     57 H           4.3560   -2.9419    0.0000 H       1  UNL1        0.0255
     58 H          10.3991   -1.0950    0.0000 H       1  UNL1        0.2100
     59 H           8.1301   -5.0250    0.0000 H       1  UNL1        0.2101
     60 H           5.8611   -5.7150    0.0000 H       1  UNL1        0.2100
     61 H           4.1291   -4.0950    0.0000 H       1  UNL1        0.2100
     62 H           9.8622    1.2150    0.0000 H       1  UNL1        0.2102
     63 H           5.8421   -0.3681    0.0000 H       1  UNL1        0.0525
     64 H           4.9951   -0.5950    0.0000 H       1  UNL1        0.0525
     65 H           5.2220   -1.4419    0.0000 H       1  UNL1        0.0525
     66 H           4.6453    4.2496    0.0000 H       1  UNL1        0.0691
     67 H           8.9962    2.4750    0.0000 H       1  UNL1        0.0662
     68 H           7.5932    4.9050    0.0000 H       1  UNL1        0.0626
     69 H           3.1963    1.7621    0.0000 H       1  UNL1        0.0691
     70 H           8.9962    5.7150    0.0000 H       1  UNL1        0.0655
     71 H           4.1164    0.2442    0.0000 H       1  UNL1        0.2922
     72 H          11.2651    3.4050    0.0000 H       1  UNL1        0.2923
     73 H           1.6921    3.6606    0.0000 H       1  UNL1        0.0660
     74 H           1.4619    2.8146    0.0000 H       1  UNL1        0.0660
     75 H           2.3079    2.5844    0.0000 H       1  UNL1        0.0660
     76 H          10.7282    5.7150    0.0000 H       1  UNL1        0.2923
@<TRIPOS>BOND
     1    17     1    1
     2    18     1    1
     3     2    18    1
     4     2    24    1
     5     3    25    1
     6     3    26    1
     7    19     4    1
     8     4    58    1
     9    20     5    1
    10     5    59    1
    11    25     6    1
    12     6    29    1
    13    21     7    1
    14     7    60    1
    15    22     8    1
    16     8    61    1
    17    26     9    1
    18     9    28    1
    19    23    10    1
    20    10    62    1
    21    11    30   ar
    22    11    33   ar
    23    12    31    2
    24    13    35    1
    25    13    71    1
    26    14    40    1
    27    14    44    1
    28    15    41    1
    29    15    72    1
    30    16    43    1
    31    16    76    1
    32    17    19    1
    33    17    25    1
    34    17    45    1
    35    18    20    1
    36    18    46    1
    37    19    23    1
    38    19    47    1
    39    20    21    1
    40    20    48    1
    41    21    22    1
    42    21    49    1
    43    22    24    1
    44    22    50    1
    45    23    26    1
    46    23    51    1
    47    24    27    1
    48    24    52    1
    49    25    53    1
    50    26    54    1
    51    27    55    1
    52    27    56    1
    53    27    57    1
    54    28    30   ar
    55    28    31   ar
    56    29    63    1
    57    29    64    1
    58    29    65    1
    59    30    34    1
    60    31    32   ar
    61    32    33   ar
    62    32    35   ar
    63    33    36   ar
    64    34    37   ar
    65    34    38   ar
    66    35    39   ar
    67    36    40   ar
    68    36    66    1
    69    37    41   ar
    70    37    67    1
    71    38    42   ar
    72    38    68    1
    73    39    40   ar
    74    39    69    1
    75    41    43   ar
    76    42    43   ar
    77    42    70    1
    78    44    73    1
    79    44    74    1
    80    44    75    1
