@<TRIPOS>MOLECULE
IMPHY017533
 30 32 0 0 0
SMALL
GASTEIGER

@<TRIPOS>ATOM
      1 C           2.6916    0.1754    0.0000 C.3     1  UNL1       -0.0048
      2 C           2.8849   -0.8193    0.0000 C.3     1  UNL1       -0.0273
      3 C           2.2831   -1.0789    0.0000 C.3     1  UNL1       -0.0273
      4 C           4.6307   -0.6788    0.0000 C.3     1  UNL1       -0.0105
      5 C           3.7367   -0.9753    0.0000 C.3     1  UNL1       -0.0400
      6 C           3.7542   -1.3983    0.0000 C.3     1  UNL1       -0.0400
      7 C           3.4925    0.3984    0.0000 C.2     1  UNL1       -0.0667
      8 C           4.3079    0.1367    0.0000 C.2     1  UNL1       -0.0672
      9 C           2.0000    0.8976    0.0000 C.3     1  UNL1       -0.0553
     10 C           5.6307   -0.6784    0.0000 C.3     1  UNL1       -0.0558
     11 C           3.5027    1.3983    0.0000 C.3     1  UNL1       -0.0430
     12 C           5.0365    0.8216    0.0000 C.3     1  UNL1       -0.0430
     13 H           3.3210   -0.3786    0.0000 H       1  UNL1        0.0312
     14 H           1.7454   -1.3876    0.0000 H       1  UNL1        0.0312
     15 H           3.4192   -1.5079    0.0000 H       1  UNL1        0.0277
     16 H           3.6936   -0.3568    0.0000 H       1  UNL1        0.0277
     17 H           3.4918   -1.9601    0.0000 H       1  UNL1        0.0277
     18 H           4.2439   -1.7786    0.0000 H       1  UNL1        0.0277
     19 H           2.4478    1.3264    0.0000 H       1  UNL1        0.0238
     20 H           1.5712    1.3454    0.0000 H       1  UNL1        0.0238
     21 H           1.5522    0.4688    0.0000 H       1  UNL1        0.0238
     22 H           5.6310   -1.2984    0.0000 H       1  UNL1        0.0238
     23 H           6.2507   -0.6782    0.0000 H       1  UNL1        0.0238
     24 H           5.6305   -0.0584    0.0000 H       1  UNL1        0.0238
     25 H           4.1226    1.3920    0.0000 H       1  UNL1        0.0275
     26 H           3.5090    2.0183    0.0000 H       1  UNL1        0.0275
     27 H           2.8827    1.4046    0.0000 H       1  UNL1        0.0275
     28 H           5.4612    0.3699    0.0000 H       1  UNL1        0.0275
     29 H           5.4883    1.2462    0.0000 H       1  UNL1        0.0275
     30 H           4.6119    1.2733    0.0000 H       1  UNL1        0.0275
@<TRIPOS>BOND
     1     1     2    1
     2     1     3    1
     3     1     7    1
     4     1     9    1
     5     2     3    1
     6     2     5    1
     7     2    13    1
     8     3     6    1
     9     3    14    1
    10     4     5    1
    11     4     6    1
    12     4     8    1
    13     4    10    1
    14     5    15    1
    15     5    16    1
    16     6    17    1
    17     6    18    1
    18     7     8    2
    19     7    11    1
    20     8    12    1
    21     9    19    1
    22     9    20    1
    23     9    21    1
    24    10    22    1
    25    10    23    1
    26    10    24    1
    27    11    25    1
    28    11    26    1
    29    11    27    1
    30    12    28    1
    31    12    29    1
    32    12    30    1
