@<TRIPOS>MOLECULE
IMPHY009031
 58 62 0 0 0
SMALL
GASTEIGER

@<TRIPOS>ATOM
      1 O           2.8304    1.0898    0.0000 O.3     1  UNL1       -0.4608
      2 O           7.2580    0.7637    0.0000 O.3     1  UNL1       -0.3479
      3 O           7.2580    2.3732    0.0000 O.3     1  UNL1       -0.3480
      4 O           7.2700   -0.4771    0.0000 O.2     1  UNL1       -0.2882
      5 O           7.3022   -2.5685    0.0000 O.2     1  UNL1       -0.4919
      6 O           2.0000    2.5982    0.0000 O.2     1  UNL1       -0.2508
      7 C           4.5797    1.0684    0.0000 C.3     1  UNL1        0.0148
      8 C           5.4457    0.5684    0.0000 C.3     1  UNL1        0.0096
      9 C           5.4618   -0.4731    0.0000 C.3     1  UNL1        0.0431
     10 C           4.5797    2.0684    0.0000 C.3     1  UNL1       -0.0168
     11 C           3.6697    0.5616    0.0000 C.3     1  UNL1        0.1093
     12 C           4.5638   -1.0008    0.0000 C.3     1  UNL1       -0.0186
     13 C           6.3118    1.0684    0.0000 C.3     1  UNL1        0.0921
     14 C           5.4457    2.5684    0.0000 C.3     1  UNL1       -0.0110
     15 C           6.3118    2.0684    0.0000 C.3     1  UNL1        0.0907
     16 C           3.6617   -0.4800    0.0000 C.3     1  UNL1       -0.0109
     17 C           4.5797    0.0684    0.0000 C.3     1  UNL1       -0.0555
     18 C           3.7215    2.5654    0.0000 C.3     1  UNL1        0.0487
     19 C           4.5554   -2.0858    0.0000 C.3     1  UNL1       -0.0181
     20 C           6.3239    0.0336    0.0000 C.3     1  UNL1       -0.0517
     21 C           6.4137   -0.9937    0.0000 C.2     1  UNL1        0.2034
     22 C           5.4457    3.5684    0.0000 C.3     1  UNL1       -0.0597
     23 C           2.8560    2.0812    0.0000 C.2     1  UNL1        0.3076
     24 C           7.8416    1.5684    0.0000 C.3     1  UNL1        0.1491
     25 C           5.4950   -2.6283    0.0000 C.2     1  UNL1       -0.0356
     26 C           6.4305   -2.0786    0.0000 C.2     1  UNL1        0.1592
     27 C           3.6874   -2.5824    0.0000 C.3     1  UNL1       -0.0585
     28 C           7.3138   -3.5684    0.0000 C.3     1  UNL1        0.0789
     29 H           6.1851    0.1491    0.0000 H       1  UNL1        0.0343
     30 H           4.5802    2.9184    0.0000 H       1  UNL1        0.0316
     31 H           2.9240    0.1536    0.0000 H       1  UNL1        0.0739
     32 H           3.8260   -1.4230    0.0000 H       1  UNL1        0.0317
     33 H           6.4017    0.2232    0.0000 H       1  UNL1        0.0626
     34 H           5.9827    2.8784    0.0000 H       1  UNL1        0.0327
     35 H           6.4017    2.9137    0.0000 H       1  UNL1        0.0626
     36 H           3.0517   -0.3692    0.0000 H       1  UNL1        0.0304
     37 H           3.4481   -1.0621    0.0000 H       1  UNL1        0.0304
     38 H           3.9597    0.0684    0.0000 H       1  UNL1        0.0236
     39 H           4.5797   -0.5516    0.0000 H       1  UNL1        0.0236
     40 H           5.1997    0.0684    0.0000 H       1  UNL1        0.0236
     41 H           4.1226    3.0382    0.0000 H       1  UNL1        0.0380
     42 H           3.3275    3.0441    0.0000 H       1  UNL1        0.0380
     43 H           4.0203   -1.7727    0.0000 H       1  UNL1        0.0344
     44 H           6.6381   -0.5009    0.0000 H       1  UNL1        0.0239
     45 H           6.8585    0.3477    0.0000 H       1  UNL1        0.0239
     46 H           6.0098    0.5681    0.0000 H       1  UNL1        0.0239
     47 H           6.0657    3.5684    0.0000 H       1  UNL1        0.0233
     48 H           5.4457    4.1884    0.0000 H       1  UNL1        0.0233
     49 H           4.8257    3.5684    0.0000 H       1  UNL1        0.0233
     50 H           8.3025    1.1537    0.0000 H       1  UNL1        0.0871
     51 H           8.3025    1.9832    0.0000 H       1  UNL1        0.0871
     52 H           5.4974   -3.2483    0.0000 H       1  UNL1        0.0612
     53 H           3.3795   -2.0443    0.0000 H       1  UNL1        0.0235
     54 H           3.1493   -2.8904    0.0000 H       1  UNL1        0.0235
     55 H           3.9954   -3.1206    0.0000 H       1  UNL1        0.0235
     56 H           6.6938   -3.5756    0.0000 H       1  UNL1        0.0660
     57 H           7.3209   -4.1884    0.0000 H       1  UNL1        0.0660
     58 H           7.9337   -3.5613    0.0000 H       1  UNL1        0.0660
@<TRIPOS>BOND
     1     1    11    1
     2     1    23    1
     3     2    13    1
     4     2    24    1
     5     3    15    1
     6     3    24    1
     7     4    21    2
     8     5    26    1
     9     5    28    1
    10     6    23    2
    11     7     8    1
    12     7    10    1
    13     7    11    1
    14     7    17    1
    15     8     9    1
    16     8    13    1
    17     8    29    1
    18     9    12    1
    19     9    20    1
    20     9    21    1
    21    10    14    1
    22    10    18    1
    23    10    30    1
    24    11    16    1
    25    11    31    1
    26    12    16    1
    27    12    19    1
    28    12    32    1
    29    13    15    1
    30    13    33    1
    31    14    15    1
    32    14    22    1
    33    14    34    1
    34    15    35    1
    35    16    36    1
    36    16    37    1
    37    17    38    1
    38    17    39    1
    39    17    40    1
    40    18    23    1
    41    18    41    1
    42    18    42    1
    43    19    25    1
    44    19    27    1
    45    19    43    1
    46    20    44    1
    47    20    45    1
    48    20    46    1
    49    21    26    1
    50    22    47    1
    51    22    48    1
    52    22    49    1
    53    24    50    1
    54    24    51    1
    55    25    26    2
    56    25    52    1
    57    27    53    1
    58    27    54    1
    59    27    55    1
    60    28    56    1
    61    28    57    1
    62    28    58    1
