@<TRIPOS>MOLECULE
IMPHY012728
 100 102 0 0 0
SMALL
GASTEIGER

@<TRIPOS>ATOM
      1 O           5.4646   -4.4251    0.0000 O.3     1  UNL1       -0.3565
      2 O           2.0000   -5.4251    0.0000 O.3     1  UNL1       -0.3917
      3 O          19.5981    5.7351    0.0000 O.3     1  UNL1       -0.3838
      4 O          22.0981    3.8691    0.0000 O.3     1  UNL1       -0.3917
      5 C           4.5981   -3.9251    0.0000 C.3     1  UNL1        0.1224
      6 C           4.5981   -4.9251    0.0000 C.3     1  UNL1        0.1032
      7 C           3.7320   -3.4251    0.0000 C.3     1  UNL1        0.0029
      8 C           3.7320   -5.4251    0.0000 C.3     1  UNL1        0.0052
      9 C           2.8660   -3.9251    0.0000 C.3     1  UNL1       -0.0186
     10 C           2.8660   -4.9251    0.0000 C.3     1  UNL1        0.0585
     11 C           4.5981   -5.9251    0.0000 C.3     1  UNL1       -0.0326
     12 C           5.0981   -3.0591    0.0000 C.2     1  UNL1       -0.0491
     13 C           2.8660   -2.9251    0.0000 C.3     1  UNL1       -0.0567
     14 C           3.7320   -2.4251    0.0000 C.3     1  UNL1       -0.0567
     15 C           6.0981   -3.0591    0.0000 C.2     1  UNL1       -0.0600
     16 C           6.5981   -2.1931    0.0000 C.2     1  UNL1       -0.0507
     17 C           6.0981   -1.3270    0.0000 C.3     1  UNL1       -0.0397
     18 C           7.5981   -2.1931    0.0000 C.2     1  UNL1       -0.0588
     19 C           8.0981   -1.3270    0.0000 C.2     1  UNL1       -0.0613
     20 C          19.5981    3.0031    0.0000 C.3     1  UNL1       -0.0014
     21 C          19.5981    4.7351    0.0000 C.3     1  UNL1        0.0943
     22 C          20.5981    3.0031    0.0000 C.3     1  UNL1       -0.0172
     23 C          21.0981    3.8691    0.0000 C.3     1  UNL1        0.0590
     24 C          20.5981    4.7351    0.0000 C.3     1  UNL1        0.0063
     25 C          19.0981    3.8691    0.0000 C.2     1  UNL1        0.0091
     26 C          19.5981    2.0031    0.0000 C.3     1  UNL1       -0.0553
     27 C          18.7320    2.5031    0.0000 C.3     1  UNL1       -0.0553
     28 C          18.7320    5.2351    0.0000 C.3     1  UNL1       -0.0315
     29 C           9.0981   -1.3270    0.0000 C.2     1  UNL1       -0.0588
     30 C          18.0981    3.8691    0.0000 C.1     1  UNL1       -0.1170
     31 C           9.5981   -0.4610    0.0000 C.2     1  UNL1       -0.0504
     32 C          17.0981    3.8691    0.0000 C.2     1  UNL1       -0.0165
     33 C           9.0981    0.4050    0.0000 C.3     1  UNL1       -0.0397
     34 C          10.5981   -0.4610    0.0000 C.2     1  UNL1       -0.0588
     35 C          16.5981    3.0031    0.0000 C.2     1  UNL1       -0.0429
     36 C          17.0981    2.1370    0.0000 C.3     1  UNL1       -0.0391
     37 C          15.5981    3.0031    0.0000 C.2     1  UNL1       -0.0583
     38 C          11.0981    0.4050    0.0000 C.2     1  UNL1       -0.0615
     39 C          15.0981    2.1370    0.0000 C.2     1  UNL1       -0.0612
     40 C          12.0981    0.4050    0.0000 C.2     1  UNL1       -0.0615
     41 C          14.0981    2.1370    0.0000 C.2     1  UNL1       -0.0588
     42 C          12.5981    1.2710    0.0000 C.2     1  UNL1       -0.0588
     43 C          13.5981    1.2710    0.0000 C.2     1  UNL1       -0.0504
     44 C          14.0981    0.4050    0.0000 C.3     1  UNL1       -0.0397
     45 H           3.3335   -5.9001    0.0000 H       1  UNL1        0.0319
     46 H           4.1306   -5.9001    0.0000 H       1  UNL1        0.0319
     47 H           2.6540   -3.3425    0.0000 H       1  UNL1        0.0296
     48 H           2.2554   -4.0328    0.0000 H       1  UNL1        0.0296
     49 H           2.8660   -5.5451    0.0000 H       1  UNL1        0.0594
     50 H           3.9781   -5.9251    0.0000 H       1  UNL1        0.0258
     51 H           4.5981   -6.5451    0.0000 H       1  UNL1        0.0258
     52 H           5.2181   -5.9251    0.0000 H       1  UNL1        0.0258
     53 H           4.7881   -2.5222    0.0000 H       1  UNL1        0.0602
     54 H           3.1760   -2.3882    0.0000 H       1  UNL1        0.0236
     55 H           2.3291   -2.6151    0.0000 H       1  UNL1        0.0236
     56 H           2.5560   -3.4621    0.0000 H       1  UNL1        0.0236
     57 H           4.3520   -2.4251    0.0000 H       1  UNL1        0.0236
     58 H           3.7320   -1.8051    0.0000 H       1  UNL1        0.0236
     59 H           3.1120   -2.4251    0.0000 H       1  UNL1        0.0236
     60 H           2.0000   -6.0451    0.0000 H       1  UNL1        0.2098
     61 H           6.4081   -3.5960    0.0000 H       1  UNL1        0.0618
     62 H           6.6350   -1.0170    0.0000 H       1  UNL1        0.0278
     63 H           5.7881   -0.7901    0.0000 H       1  UNL1        0.0278
     64 H           5.5611   -1.6370    0.0000 H       1  UNL1        0.0278
     65 H           7.9081   -2.7300    0.0000 H       1  UNL1        0.0620
     66 H           7.7881   -0.7901    0.0000 H       1  UNL1        0.0618
     67 H          20.4904    2.3925    0.0000 H       1  UNL1        0.0299
     68 H          21.1807    2.7910    0.0000 H       1  UNL1        0.0299
     69 H          21.4081    3.3322    0.0000 H       1  UNL1        0.0594
     70 H          21.1807    4.9472    0.0000 H       1  UNL1        0.0321
     71 H          20.4904    5.3457    0.0000 H       1  UNL1        0.0321
     72 H          18.9781    2.0031    0.0000 H       1  UNL1        0.0238
     73 H          19.5981    1.3831    0.0000 H       1  UNL1        0.0238
     74 H          20.2181    2.0031    0.0000 H       1  UNL1        0.0238
     75 H          18.4221    3.0400    0.0000 H       1  UNL1        0.0238
     76 H          18.1951    2.1931    0.0000 H       1  UNL1        0.0238
     77 H          19.0420    1.9661    0.0000 H       1  UNL1        0.0238
     78 H          19.0420    5.7721    0.0000 H       1  UNL1        0.0261
     79 H          18.1951    5.5451    0.0000 H       1  UNL1        0.0261
     80 H          18.4221    4.6982    0.0000 H       1  UNL1        0.0261
     81 H           9.4081   -1.8640    0.0000 H       1  UNL1        0.0620
     82 H          20.1350    6.0451    0.0000 H       1  UNL1        0.2106
     83 H          22.4081    3.3322    0.0000 H       1  UNL1        0.2098
     84 H          16.7881    4.4060    0.0000 H       1  UNL1        0.0708
     85 H           9.6350    0.7150    0.0000 H       1  UNL1        0.0278
     86 H           8.7881    0.9419    0.0000 H       1  UNL1        0.0278
     87 H           8.5611    0.0950    0.0000 H       1  UNL1        0.0278
     88 H          10.9081   -0.9980    0.0000 H       1  UNL1        0.0620
     89 H          16.5611    1.8270    0.0000 H       1  UNL1        0.0278
     90 H          17.4081    1.6001    0.0000 H       1  UNL1        0.0278
     91 H          17.6350    2.4470    0.0000 H       1  UNL1        0.0278
     92 H          15.2881    3.5400    0.0000 H       1  UNL1        0.0620
     93 H          10.7881    0.9419    0.0000 H       1  UNL1        0.0618
     94 H          15.4081    1.6001    0.0000 H       1  UNL1        0.0618
     95 H          12.4081   -0.1319    0.0000 H       1  UNL1        0.0618
     96 H          13.7881    2.6740    0.0000 H       1  UNL1        0.0620
     97 H          12.2881    1.8080    0.0000 H       1  UNL1        0.0620
     98 H          13.5611    0.0950    0.0000 H       1  UNL1        0.0278
     99 H          14.4081   -0.1319    0.0000 H       1  UNL1        0.0278
    100 H          14.6350    0.7150    0.0000 H       1  UNL1        0.0278
@<TRIPOS>BOND
     1     1     5    1
     2     1     6    1
     3    10     2    1
     4     2    60    1
     5    21     3    1
     6     3    82    1
     7    23     4    1
     8     4    83    1
     9     5     6    1
    10     5     7    1
    11     5    12    1
    12     6     8    1
    13     6    11    1
    14     7     9    1
    15     7    13    1
    16     7    14    1
    17     8    10    1
    18     8    45    1
    19     8    46    1
    20     9    10    1
    21     9    47    1
    22     9    48    1
    23    10    49    1
    24    11    50    1
    25    11    51    1
    26    11    52    1
    27    12    15    2
    28    12    53    1
    29    13    54    1
    30    13    55    1
    31    13    56    1
    32    14    57    1
    33    14    58    1
    34    14    59    1
    35    15    16    1
    36    15    61    1
    37    16    17    1
    38    16    18    2
    39    17    62    1
    40    17    63    1
    41    17    64    1
    42    18    19    1
    43    18    65    1
    44    19    29    2
    45    19    66    1
    46    20    22    1
    47    20    25    1
    48    20    26    1
    49    20    27    1
    50    21    24    1
    51    21    25    1
    52    21    28    1
    53    22    23    1
    54    22    67    1
    55    22    68    1
    56    23    24    1
    57    23    69    1
    58    24    70    1
    59    24    71    1
    60    25    30    2
    61    26    72    1
    62    26    73    1
    63    26    74    1
    64    27    75    1
    65    27    76    1
    66    27    77    1
    67    28    78    1
    68    28    79    1
    69    28    80    1
    70    29    31    1
    71    29    81    1
    72    30    32    2
    73    31    33    1
    74    31    34    2
    75    32    35    1
    76    32    84    1
    77    33    85    1
    78    33    86    1
    79    33    87    1
    80    34    38    1
    81    34    88    1
    82    35    36    1
    83    35    37    2
    84    36    89    1
    85    36    90    1
    86    36    91    1
    87    37    39    1
    88    37    92    1
    89    38    40    2
    90    38    93    1
    91    39    41    2
    92    39    94    1
    93    40    42    1
    94    40    95    1
    95    41    43    1
    96    41    96    1
    97    42    43    2
    98    42    97    1
    99    43    44    1
   100    44    98    1
   101    44    99    1
   102    44   100    1
