@<TRIPOS>MOLECULE
IMPHY008708
 45 47 0 0 0
SMALL
GASTEIGER

@<TRIPOS>ATOM
      1 O           6.3981   -0.5223    0.0000 O.3     1  UNL1       -0.4827
      2 O           7.2641   -2.0223    0.0000 O.3     1  UNL1       -0.4946
      3 O           6.3981    2.4777    0.0000 O.2     1  UNL1       -0.2917
      4 O           4.6497    2.5123    0.0000 O.3     1  UNL1       -0.4942
      5 O           2.8680   -0.5464    0.0000 O.3     1  UNL1       -0.4949
      6 O          10.7282   -2.0223    0.0000 O.3     1  UNL1       -0.4950
      7 C           7.2641   -0.0223    0.0000 C.3     1  UNL1        0.1355
      8 C           7.2641    0.9777    0.0000 C.3     1  UNL1        0.0521
      9 C           8.1301   -0.5223    0.0000 C.ar    1  UNL1        0.0349
     10 C           5.5320    0.9777    0.0000 C.ar    1  UNL1        0.1009
     11 C           6.3981    1.4777    0.0000 C.2     1  UNL1        0.1740
     12 C           5.5320   -0.0223    0.0000 C.ar    1  UNL1        0.1389
     13 C           8.1301   -1.5223    0.0000 C.ar    1  UNL1        0.1302
     14 C           4.6381    1.5124    0.0000 C.ar    1  UNL1        0.1375
     15 C           8.9962   -0.0223    0.0000 C.ar    1  UNL1       -0.0481
     16 C           4.6381   -0.5569    0.0000 C.ar    1  UNL1        0.0227
     17 C           3.7320   -0.0431    0.0000 C.ar    1  UNL1        0.1271
     18 C           3.7320    0.9985    0.0000 C.ar    1  UNL1        0.0227
     19 C           8.9962   -2.0223    0.0000 C.ar    1  UNL1        0.0221
     20 C           9.8622   -0.5223    0.0000 C.ar    1  UNL1       -0.0193
     21 C           9.8622   -1.5223    0.0000 C.ar    1  UNL1        0.1236
     22 C           7.2641   -3.0223    0.0000 C.3     1  UNL1        0.0788
     23 C           3.7895    3.0223    0.0000 C.3     1  UNL1        0.0788
     24 C           2.0000   -0.0498    0.0000 C.3     1  UNL1        0.0788
     25 C          11.5942   -1.5223    0.0000 C.3     1  UNL1        0.0788
     26 H           7.2641   -0.6423    0.0000 H       1  UNL1        0.0790
     27 H           7.8747    0.8701    0.0000 H       1  UNL1        0.0385
     28 H           7.4762    1.5603    0.0000 H       1  UNL1        0.0385
     29 H           8.9962    0.5977    0.0000 H       1  UNL1        0.0624
     30 H           4.6453   -1.1769    0.0000 H       1  UNL1        0.0691
     31 H           3.1963    1.3106    0.0000 H       1  UNL1        0.0691
     32 H           8.9962   -2.6423    0.0000 H       1  UNL1        0.0691
     33 H          10.3991   -0.2123    0.0000 H       1  UNL1        0.0654
     34 H           6.6441   -3.0223    0.0000 H       1  UNL1        0.0660
     35 H           7.2641   -3.6423    0.0000 H       1  UNL1        0.0660
     36 H           7.8841   -3.0223    0.0000 H       1  UNL1        0.0660
     37 H           4.1057    3.5556    0.0000 H       1  UNL1        0.0660
     38 H           3.2562    3.3385    0.0000 H       1  UNL1        0.0660
     39 H           3.4733    2.4890    0.0000 H       1  UNL1        0.0660
     40 H           2.3079    0.4883    0.0000 H       1  UNL1        0.0660
     41 H           1.4619    0.2581    0.0000 H       1  UNL1        0.0660
     42 H           1.6921   -0.5879    0.0000 H       1  UNL1        0.0660
     43 H          11.9042   -2.0592    0.0000 H       1  UNL1        0.0660
     44 H          12.1312   -1.2123    0.0000 H       1  UNL1        0.0660
     45 H          11.2842   -0.9854    0.0000 H       1  UNL1        0.0660
@<TRIPOS>BOND
     1     1     7    1
     2     1    12    1
     3     2    13    1
     4     2    22    1
     5     3    11    2
     6     4    14    1
     7     4    23    1
     8     5    17    1
     9     5    24    1
    10     6    21    1
    11     6    25    1
    12     7     8    1
    13     7     9    1
    14     7    26    1
    15     8    11    1
    16     8    27    1
    17     8    28    1
    18     9    13   ar
    19     9    15   ar
    20    10    11    1
    21    10    12   ar
    22    10    14   ar
    23    12    16   ar
    24    13    19   ar
    25    14    18   ar
    26    15    20   ar
    27    15    29    1
    28    16    17   ar
    29    16    30    1
    30    17    18   ar
    31    18    31    1
    32    19    21   ar
    33    19    32    1
    34    20    21   ar
    35    20    33    1
    36    22    34    1
    37    22    35    1
    38    22    36    1
    39    23    37    1
    40    23    38    1
    41    23    39    1
    42    24    40    1
    43    24    41    1
    44    24    42    1
    45    25    43    1
    46    25    44    1
    47    25    45    1
