@<TRIPOS>MOLECULE
IMPHY000723
 45 45 0 0 0
SMALL
GASTEIGER

@<TRIPOS>ATOM
      1 O           4.5981    0.2500    0.0000 O.2     1  UNL1       -0.2708
      2 O           2.8660   -4.7500    0.0000 O.3     1  UNL1       -0.4914
      3 O           4.5981   -5.7500    0.0000 O.3     1  UNL1       -0.5033
      4 N           6.3301    0.2500    0.0000 N.am    1  UNL1       -0.3118
      5 N           8.0622    4.2500    0.0000 N.pl3   1  UNL1       -0.2787
      6 N           8.9282    5.7500    0.0000 N.pl3   1  UNL1       -0.2919
      7 N           9.7942    4.2500    0.0000 N.pl3   1  UNL1       -0.2919
      8 C           7.1962    1.7500    0.0000 C.3     1  UNL1       -0.0345
      9 C           7.1962    2.7500    0.0000 C.3     1  UNL1       -0.0208
     10 C           6.3301    1.2500    0.0000 C.3     1  UNL1        0.0120
     11 C           8.0622    3.2500    0.0000 C.3     1  UNL1        0.0646
     12 C           5.4641   -0.2500    0.0000 C.2     1  UNL1        0.2369
     13 C           8.9282    4.7500    0.0000 C.cat   1  UNL1        0.3410
     14 C           5.4641   -1.2500    0.0000 C.2     1  UNL1        0.0007
     15 C           4.5981   -2.7500    0.0000 C.ar    1  UNL1       -0.0212
     16 C           4.5981   -1.7500    0.0000 C.2     1  UNL1       -0.0496
     17 C           3.7320   -3.2500    0.0000 C.ar    1  UNL1       -0.0092
     18 C           5.4641   -3.2500    0.0000 C.ar    1  UNL1       -0.0509
     19 C           3.7320   -4.2500    0.0000 C.ar    1  UNL1        0.1618
     20 C           4.5981   -4.7500    0.0000 C.ar    1  UNL1        0.1585
     21 C           5.4641   -4.2500    0.0000 C.ar    1  UNL1       -0.0160
     22 C           2.0000   -4.2500    0.0000 C.3     1  UNL1        0.0790
     23 H           7.4082    1.1674    0.0000 H       1  UNL1        0.0281
     24 H           7.8067    1.8577    0.0000 H       1  UNL1        0.0281
     25 H           6.9841    3.3326    0.0000 H       1  UNL1        0.0296
     26 H           6.5856    2.6423    0.0000 H       1  UNL1        0.0296
     27 H           6.1181    1.8326    0.0000 H       1  UNL1        0.0462
     28 H           5.7196    1.1423    0.0000 H       1  UNL1        0.0462
     29 H           8.2742    2.6674    0.0000 H       1  UNL1        0.0655
     30 H           8.6728    3.3577    0.0000 H       1  UNL1        0.0655
     31 H           6.8671   -0.0600    0.0000 H       1  UNL1        0.1490
     32 H           7.5252    4.5600    0.0000 H       1  UNL1        0.2578
     33 H           6.0010   -1.5600    0.0000 H       1  UNL1        0.0669
     34 H           4.0611   -1.4400    0.0000 H       1  UNL1        0.0625
     35 H           3.1951   -2.9400    0.0000 H       1  UNL1        0.0661
     36 H           6.0010   -2.9400    0.0000 H       1  UNL1        0.0625
     37 H           6.0010   -4.5600    0.0000 H       1  UNL1        0.0655
     38 H           9.4651    6.0600    0.0000 H       1  UNL1        0.2545
     39 H           8.3913    6.0600    0.0000 H       1  UNL1        0.2545
     40 H          10.3312    4.5600    0.0000 H       1  UNL1        0.2545
     41 H           9.7942    3.6300    0.0000 H       1  UNL1        0.2545
     42 H           5.1350   -6.0600    0.0000 H       1  UNL1        0.2923
     43 H           2.3100   -3.7131    0.0000 H       1  UNL1        0.0660
     44 H           1.4631   -3.9400    0.0000 H       1  UNL1        0.0660
     45 H           1.6900   -4.7869    0.0000 H       1  UNL1        0.0660
@<TRIPOS>UNITY_ATOM_ATTR
5 1
charge 1
@<TRIPOS>BOND
     1     1    12    2
     2     2    19    1
     3     2    22    1
     4     3    20    1
     5     3    42    1
     6     4    10    1
     7     4    12   am
     8     4    31    1
     9     5    11    1
    10     5    13    2
    11     5    32    1
    12     6    13    1
    13     6    38    1
    14     6    39    1
    15     7    13    1
    16     7    40    1
    17     7    41    1
    18     8     9    1
    19     8    10    1
    20     8    23    1
    21     8    24    1
    22     9    11    1
    23     9    25    1
    24     9    26    1
    25    10    27    1
    26    10    28    1
    27    11    29    1
    28    11    30    1
    29    12    14    1
    30    14    16    2
    31    14    33    1
    32    15    16    1
    33    15    17   ar
    34    15    18   ar
    35    16    34    1
    36    17    19   ar
    37    17    35    1
    38    18    21   ar
    39    18    36    1
    40    19    20   ar
    41    20    21   ar
    42    21    37    1
    43    22    43    1
    44    22    44    1
    45    22    45    1
