@<TRIPOS>MOLECULE
IMPHY003486
 20 19 0 0 0
SMALL
GASTEIGER

@<TRIPOS>ATOM
      1 O           2.5369   -0.4330    0.0000 O.3     1  UNL1       -0.3887
      2 O           5.1350   -0.9330    0.0000 O.2     1  UNL1       -0.2976
      3 C           3.4030    0.0670    0.0000 C.3     1  UNL1        0.0672
      4 C           4.2690    0.5670    0.0000 C.3     1  UNL1        0.0339
      5 C           2.9030    0.9330    0.0000 C.3     1  UNL1       -0.0359
      6 C           3.9030   -0.7990    0.0000 C.3     1  UNL1       -0.0359
      7 C           5.1350    0.0670    0.0000 C.2     1  UNL1        0.1330
      8 C           6.0010    0.5670    0.0000 C.3     1  UNL1       -0.0060
      9 H           4.6675    1.0419    0.0000 H       1  UNL1        0.0369
     10 H           3.8705    1.0419    0.0000 H       1  UNL1        0.0369
     11 H           3.4399    1.2430    0.0000 H       1  UNL1        0.0257
     12 H           2.5930    1.4700    0.0000 H       1  UNL1        0.0257
     13 H           2.3660    0.6230    0.0000 H       1  UNL1        0.0257
     14 H           3.3660   -1.1090    0.0000 H       1  UNL1        0.0257
     15 H           4.2130   -1.3360    0.0000 H       1  UNL1        0.0257
     16 H           4.4399   -0.4890    0.0000 H       1  UNL1        0.0257
     17 H           2.0000   -0.1230    0.0000 H       1  UNL1        0.2101
     18 H           6.3110    0.0301    0.0000 H       1  UNL1        0.0306
     19 H           6.5380    0.8770    0.0000 H       1  UNL1        0.0306
     20 H           5.6910    1.1039    0.0000 H       1  UNL1        0.0306
@<TRIPOS>BOND
     1     1     3    1
     2     1    17    1
     3     2     7    2
     4     3     4    1
     5     3     5    1
     6     3     6    1
     7     4     7    1
     8     4     9    1
     9     4    10    1
    10     5    11    1
    11     5    12    1
    12     5    13    1
    13     6    14    1
    14     6    15    1
    15     6    16    1
    16     7     8    1
    17     8    18    1
    18     8    19    1
    19     8    20    1
