@<TRIPOS>MOLECULE
IMPHY015817
 21 20 0 0 0
SMALL
GASTEIGER

@<TRIPOS>ATOM
      1 O           3.7320   -1.0950    0.0000 O.3     1  UNL1       -0.3803
      2 O           5.4641   -0.0950    0.0000 O.3     1  UNL1       -0.4661
      3 O           4.5981    1.4050    0.0000 O.2     1  UNL1       -0.2479
      4 C           2.8660    0.4050    0.0000 C.3     1  UNL1       -0.0102
      5 C           3.7320   -0.0950    0.0000 C.3     1  UNL1        0.1538
      6 C           2.0000   -0.0950    0.0000 C.3     1  UNL1       -0.0598
      7 C           2.8660    1.4050    0.0000 C.3     1  UNL1       -0.0598
      8 C           4.5981    0.4050    0.0000 C.2     1  UNL1        0.3360
      9 C           6.3301    0.4050    0.0000 C.3     1  UNL1        0.0817
     10 H           2.8660   -0.2150    0.0000 H       1  UNL1        0.0326
     11 H           4.2690   -0.4050    0.0000 H       1  UNL1        0.0713
     12 H           1.6900    0.4419    0.0000 H       1  UNL1        0.0233
     13 H           1.4631   -0.4050    0.0000 H       1  UNL1        0.0233
     14 H           2.3100   -0.6319    0.0000 H       1  UNL1        0.0233
     15 H           3.4860    1.4050    0.0000 H       1  UNL1        0.0233
     16 H           2.8660    2.0250    0.0000 H       1  UNL1        0.0233
     17 H           2.2460    1.4050    0.0000 H       1  UNL1        0.0233
     18 H           3.1951   -1.4050    0.0000 H       1  UNL1        0.2105
     19 H           6.6401   -0.1319    0.0000 H       1  UNL1        0.0661
     20 H           6.8671    0.7150    0.0000 H       1  UNL1        0.0661
     21 H           6.0201    0.9419    0.0000 H       1  UNL1        0.0661
@<TRIPOS>BOND
     1     1     5    1
     2     1    18    1
     3     2     8    1
     4     2     9    1
     5     3     8    2
     6     4     5    1
     7     4     6    1
     8     4     7    1
     9     4    10    1
    10     5     8    1
    11     5    11    1
    12     6    12    1
    13     6    13    1
    14     6    14    1
    15     7    15    1
    16     7    16    1
    17     7    17    1
    18     9    19    1
    19     9    20    1
    20     9    21    1
