@<TRIPOS>MOLECULE
IMPHY006631
 75 79 0 0 0
SMALL
GASTEIGER

@<TRIPOS>ATOM
      1 O           4.0443   -3.1442    0.0000 O.3     1  UNL1       -0.3821
      2 O           4.9580   -3.6650    0.0000 O.3     1  UNL1       -0.3888
      3 O           2.6200   -3.5619    0.0000 O.3     1  UNL1       -0.3848
      4 O           3.1525    0.4613    0.0000 O.2     1  UNL1       -0.2920
      5 O           9.6054    1.1214    0.0000 O.3     1  UNL1       -0.4574
      6 O          11.2517    0.5833    0.0000 O.2     1  UNL1       -0.2452
      7 O          12.1837    3.4349    0.0000 O.3     1  UNL1       -0.3902
      8 C           6.7021    0.4042    0.0000 C.3     1  UNL1       -0.0258
      9 C           6.7021   -0.5958    0.0000 C.3     1  UNL1       -0.0322
     10 C           5.8361   -1.0958    0.0000 C.3     1  UNL1       -0.0315
     11 C           4.9701   -0.5958    0.0000 C.3     1  UNL1       -0.0226
     12 C           7.6483    0.7090    0.0000 C.3     1  UNL1       -0.0294
     13 C           4.0601   -1.1026    0.0000 C.3     1  UNL1        0.0670
     14 C           5.8361    0.9042    0.0000 C.3     1  UNL1       -0.0468
     15 C           7.6483   -0.9005    0.0000 C.3     1  UNL1       -0.0492
     16 C           4.9701    0.4042    0.0000 C.3     1  UNL1       -0.0484
     17 C           4.0520   -2.1442    0.0000 C.3     1  UNL1        0.1334
     18 C           5.8522   -2.1373    0.0000 C.3     1  UNL1       -0.0206
     19 C           8.2320   -0.0958    0.0000 C.3     1  UNL1       -0.0491
     20 C           4.9541   -2.6650    0.0000 C.3     1  UNL1        0.0878
     21 C           7.9590    1.6595    0.0000 C.3     1  UNL1       -0.0030
     22 C           6.7021    1.4042    0.0000 C.3     1  UNL1       -0.0590
     23 C           4.0678   -0.1026    0.0000 C.3     1  UNL1       -0.0494
     24 C           3.1166   -2.6940    0.0000 C.3     1  UNL1        0.1058
     25 C           3.1332   -0.5385    0.0000 C.2     1  UNL1        0.1649
     26 C           8.9375    1.8657    0.0000 C.3     1  UNL1        0.1099
     27 C           7.2912    2.4038    0.0000 C.3     1  UNL1       -0.0588
     28 C           2.1770   -2.1514    0.0000 C.2     1  UNL1       -0.0497
     29 C           2.1854   -1.0665    0.0000 C.2     1  UNL1       -0.0200
     30 C           9.2482    2.8162    0.0000 C.3     1  UNL1        0.0064
     31 C          10.2267    3.0224    0.0000 C.2     1  UNL1       -0.0570
     32 C          10.5839    1.3276    0.0000 C.2     1  UNL1        0.3376
     33 C          10.8945    2.2781    0.0000 C.2     1  UNL1        0.0608
     34 C          10.5373    3.9730    0.0000 C.3     1  UNL1       -0.0428
     35 C          11.8730    2.4844    0.0000 C.3     1  UNL1        0.0759
     36 H           6.7921   -1.4410    0.0000 H       1  UNL1        0.0309
     37 H           6.5755   -1.5151    0.0000 H       1  UNL1        0.0307
     38 H           5.7062   -0.1708    0.0000 H       1  UNL1        0.0314
     39 H           8.4880    0.8408    0.0000 H       1  UNL1        0.0310
     40 H           6.2346    1.3792    0.0000 H       1  UNL1        0.0271
     41 H           5.4376    1.3792    0.0000 H       1  UNL1        0.0271
     42 H           7.3973   -1.4674    0.0000 H       1  UNL1        0.0268
     43 H           8.1857   -1.2097    0.0000 H       1  UNL1        0.0268
     44 H           4.7580    0.9868    0.0000 H       1  UNL1        0.0268
     45 H           4.3595    0.2966    0.0000 H       1  UNL1        0.0268
     46 H           6.0702   -2.7177    0.0000 H       1  UNL1        0.0294
     47 H           6.4613   -2.0218    0.0000 H       1  UNL1        0.0294
     48 H           8.6928   -0.5105    0.0000 H       1  UNL1        0.0268
     49 H           8.6928    0.3190    0.0000 H       1  UNL1        0.0268
     50 H           5.4928   -2.9719    0.0000 H       1  UNL1        0.0623
     51 H           8.1516    2.2488    0.0000 H       1  UNL1        0.0337
     52 H           7.3221    1.4042    0.0000 H       1  UNL1        0.0235
     53 H           6.7021    2.0242    0.0000 H       1  UNL1        0.0235
     54 H           6.0821    1.4042    0.0000 H       1  UNL1        0.0235
     55 H           4.6878   -0.1074    0.0000 H       1  UNL1        0.0240
     56 H           4.0726    0.5173    0.0000 H       1  UNL1        0.0240
     57 H           3.4478   -0.0979    0.0000 H       1  UNL1        0.0240
     58 H           3.5576   -3.1298    0.0000 H       1  UNL1        0.0668
     59 H           8.6735    1.0578    0.0000 H       1  UNL1        0.0740
     60 H           7.7526    2.8178    0.0000 H       1  UNL1        0.0234
     61 H           6.8771    2.8652    0.0000 H       1  UNL1        0.0234
     62 H           6.8297    1.9897    0.0000 H       1  UNL1        0.0234
     63 H           3.7302   -3.6787    0.0000 H       1  UNL1        0.2104
     64 H           1.6389   -2.4594    0.0000 H       1  UNL1        0.0599
     65 H           1.6520   -0.7503    0.0000 H       1  UNL1        0.0650
     66 H           5.4961   -3.9730    0.0000 H       1  UNL1        0.2099
     67 H           9.2276    3.4359    0.0000 H       1  UNL1        0.0346
     68 H           8.6344    2.9036    0.0000 H       1  UNL1        0.0346
     69 H           2.0000   -3.5643    0.0000 H       1  UNL1        0.2103
     70 H          11.1267    3.7804    0.0000 H       1  UNL1        0.0275
     71 H          10.7300    4.5623    0.0000 H       1  UNL1        0.0275
     72 H           9.9480    4.1656    0.0000 H       1  UNL1        0.0275
     73 H          11.8936    1.8647    0.0000 H       1  UNL1        0.0609
     74 H          12.4868    2.3970    0.0000 H       1  UNL1        0.0609
     75 H          12.7904    3.5627    0.0000 H       1  UNL1        0.2099
@<TRIPOS>BOND
     1    17     1    1
     2     1    63    1
     3    20     2    1
     4     2    66    1
     5    24     3    1
     6     3    69    1
     7     4    25    2
     8     5    26    1
     9     5    32    1
    10     6    32    2
    11     7    35    1
    12     7    75    1
    13     8     9    1
    14     8    12    1
    15     8    14    1
    16     8    22    1
    17     9    10    1
    18     9    15    1
    19     9    36    1
    20    10    11    1
    21    10    18    1
    22    10    37    1
    23    11    13    1
    24    11    16    1
    25    11    38    1
    26    12    19    1
    27    12    21    1
    28    12    39    1
    29    13    17    1
    30    13    23    1
    31    13    25    1
    32    14    16    1
    33    14    40    1
    34    14    41    1
    35    15    19    1
    36    15    42    1
    37    15    43    1
    38    16    44    1
    39    16    45    1
    40    17    20    1
    41    17    24    1
    42    18    20    1
    43    18    46    1
    44    18    47    1
    45    19    48    1
    46    19    49    1
    47    20    50    1
    48    21    26    1
    49    21    27    1
    50    21    51    1
    51    22    52    1
    52    22    53    1
    53    22    54    1
    54    23    55    1
    55    23    56    1
    56    23    57    1
    57    24    28    1
    58    24    58    1
    59    25    29    1
    60    26    30    1
    61    26    59    1
    62    27    60    1
    63    27    61    1
    64    27    62    1
    65    28    29    2
    66    28    64    1
    67    29    65    1
    68    30    31    1
    69    30    67    1
    70    30    68    1
    71    31    33    2
    72    31    34    1
    73    32    33    1
    74    33    35    1
    75    34    70    1
    76    34    71    1
    77    34    72    1
    78    35    73    1
    79    35    74    1
