@<TRIPOS>MOLECULE
IMPHY009024
 62 63 0 0 0
SMALL
GASTEIGER

@<TRIPOS>ATOM
      1 O           6.3301   -0.3899    0.0000 O.3     1  UNL1       -0.4943
      2 O           2.8660   -0.3899    0.0000 O.3     1  UNL1       -0.5055
      3 O           3.3125    2.1422    0.0000 O.3     1  UNL1       -0.4946
      4 O           4.5981   -3.3899    0.0000 O.3     1  UNL1       -0.5056
      5 O           6.5677    0.9574    0.0000 O.3     1  UNL1       -0.5055
      6 O           5.9662    4.3689    0.0000 O.3     1  UNL1       -0.5058
      7 O           2.0000   -1.8899    0.0000 O.2     1  UNL1       -0.2918
      8 O           7.8945    2.0708    0.0000 O.2     1  UNL1       -0.2918
      9 C           4.5981    0.6101    0.0000 C.3     1  UNL1        0.0115
     10 C           4.5981   -0.3899    0.0000 C.ar    1  UNL1        0.0413
     11 C           4.9401    1.5498    0.0000 C.ar    1  UNL1        0.0410
     12 C           5.4641   -0.8899    0.0000 C.ar    1  UNL1        0.1334
     13 C           3.7320   -0.8899    0.0000 C.ar    1  UNL1        0.1378
     14 C           3.7320   -1.8899    0.0000 C.ar    1  UNL1        0.1008
     15 C           5.4641   -1.8899    0.0000 C.ar    1  UNL1        0.0337
     16 C           4.5981   -2.3899    0.0000 C.ar    1  UNL1        0.1372
     17 C           5.9249    1.7235    0.0000 C.ar    1  UNL1        0.1378
     18 C           4.2973    2.3159    0.0000 C.ar    1  UNL1        0.1305
     19 C           6.2669    2.6632    0.0000 C.ar    1  UNL1        0.1005
     20 C           2.8660   -2.3899    0.0000 C.2     1  UNL1        0.1702
     21 C           2.8660   -3.3899    0.0000 C.3     1  UNL1        0.0105
     22 C           5.6241    3.4292    0.0000 C.ar    1  UNL1        0.1343
     23 C           4.6393    3.2556    0.0000 C.ar    1  UNL1        0.0227
     24 C           6.3301   -2.3899    0.0000 C.3     1  UNL1       -0.0327
     25 C           7.2517    2.8368    0.0000 C.2     1  UNL1        0.1702
     26 C           7.5938    3.7765    0.0000 C.3     1  UNL1        0.0105
     27 C           2.0000   -3.8899    0.0000 C.3     1  UNL1       -0.0489
     28 C           8.5786    3.9502    0.0000 C.3     1  UNL1       -0.0489
     29 C           2.0000   -4.8899    0.0000 C.3     1  UNL1       -0.0649
     30 C           7.1962   -0.8899    0.0000 C.3     1  UNL1        0.0788
     31 C           8.9206    4.8899    0.0000 C.3     1  UNL1       -0.0649
     32 C           2.6697    2.9083    0.0000 C.3     1  UNL1        0.0788
     33 H           4.1471    1.0356    0.0000 H       1  UNL1        0.0366
     34 H           5.2087    0.5025    0.0000 H       1  UNL1        0.0366
     35 H           3.0781   -3.9725    0.0000 H       1  UNL1        0.0345
     36 H           3.4766   -3.2822    0.0000 H       1  UNL1        0.0345
     37 H           4.2408    3.7305    0.0000 H       1  UNL1        0.0691
     38 H           6.0201   -2.9268    0.0000 H       1  UNL1        0.0280
     39 H           6.8671   -2.6999    0.0000 H       1  UNL1        0.0280
     40 H           6.6401   -1.8529    0.0000 H       1  UNL1        0.0280
     41 H           7.5938    4.3965    0.0000 H       1  UNL1        0.0345
     42 H           6.9832    3.8842    0.0000 H       1  UNL1        0.0345
     43 H           1.7880   -3.3072    0.0000 H       1  UNL1        0.0267
     44 H           1.3894   -3.9975    0.0000 H       1  UNL1        0.0267
     45 H           8.5786    3.3302    0.0000 H       1  UNL1        0.0267
     46 H           9.1891    3.8425    0.0000 H       1  UNL1        0.0267
     47 H           2.8660    0.2301    0.0000 H       1  UNL1        0.2922
     48 H           5.1350   -3.6999    0.0000 H       1  UNL1        0.2922
     49 H           7.1783    1.0651    0.0000 H       1  UNL1        0.2922
     50 H           1.3800   -4.8899    0.0000 H       1  UNL1        0.0230
     51 H           2.0000   -5.5099    0.0000 H       1  UNL1        0.0230
     52 H           2.6200   -4.8899    0.0000 H       1  UNL1        0.0230
     53 H           6.8862   -1.4268    0.0000 H       1  UNL1        0.0660
     54 H           7.7331   -1.1999    0.0000 H       1  UNL1        0.0660
     55 H           7.5062   -0.3529    0.0000 H       1  UNL1        0.0660
     56 H           9.5032    4.6778    0.0000 H       1  UNL1        0.0230
     57 H           9.1326    5.4725    0.0000 H       1  UNL1        0.0230
     58 H           8.3380    5.1019    0.0000 H       1  UNL1        0.0230
     59 H           5.5676    4.8439    0.0000 H       1  UNL1        0.2922
     60 H           3.1447    3.3068    0.0000 H       1  UNL1        0.0660
     61 H           2.2712    3.3832    0.0000 H       1  UNL1        0.0660
     62 H           2.1948    2.5098    0.0000 H       1  UNL1        0.0660
@<TRIPOS>BOND
     1     1    12    1
     2     1    30    1
     3     2    13    1
     4     2    47    1
     5     3    18    1
     6     3    32    1
     7     4    16    1
     8     4    48    1
     9     5    17    1
    10     5    49    1
    11     6    22    1
    12     6    59    1
    13     7    20    2
    14     8    25    2
    15     9    10    1
    16     9    11    1
    17     9    33    1
    18     9    34    1
    19    10    12   ar
    20    10    13   ar
    21    11    17   ar
    22    11    18   ar
    23    12    15   ar
    24    13    14   ar
    25    14    16   ar
    26    14    20    1
    27    15    16   ar
    28    15    24    1
    29    17    19   ar
    30    18    23   ar
    31    19    22   ar
    32    19    25    1
    33    20    21    1
    34    21    27    1
    35    21    35    1
    36    21    36    1
    37    22    23   ar
    38    23    37    1
    39    24    38    1
    40    24    39    1
    41    24    40    1
    42    25    26    1
    43    26    28    1
    44    26    41    1
    45    26    42    1
    46    27    29    1
    47    27    43    1
    48    27    44    1
    49    28    31    1
    50    28    45    1
    51    28    46    1
    52    29    50    1
    53    29    51    1
    54    29    52    1
    55    30    53    1
    56    30    54    1
    57    30    55    1
    58    31    56    1
    59    31    57    1
    60    31    58    1
    61    32    60    1
    62    32    61    1
    63    32    62    1
