@<TRIPOS>MOLECULE
IMPHY015234
 24 23 0 0 0
SMALL
GASTEIGER

@<TRIPOS>ATOM
      1 O           4.5981   -1.2500    0.0000 O.2     1  UNL1       -0.2974
      2 O           7.1962    1.2500    0.0000 O.2     1  UNL1       -0.2977
      3 C           3.7320    0.2500    0.0000 C.3     1  UNL1        0.0056
      4 C           5.4641    0.2500    0.0000 C.3     1  UNL1        0.0125
      5 C           4.5981   -0.2500    0.0000 C.2     1  UNL1        0.1338
      6 C           2.8660   -0.2500    0.0000 C.3     1  UNL1       -0.0492
      7 C           6.3301   -0.2500    0.0000 C.3     1  UNL1        0.0122
      8 C           2.0000    0.2500    0.0000 C.3     1  UNL1       -0.0649
      9 C           7.1962    0.2500    0.0000 C.2     1  UNL1        0.1307
     10 C           8.0622   -0.2500    0.0000 C.3     1  UNL1       -0.0061
     11 H           4.1306    0.7249    0.0000 H       1  UNL1        0.0341
     12 H           3.3335    0.7249    0.0000 H       1  UNL1        0.0341
     13 H           5.8626    0.7249    0.0000 H       1  UNL1        0.0346
     14 H           5.0656    0.7249    0.0000 H       1  UNL1        0.0346
     15 H           2.4675   -0.7249    0.0000 H       1  UNL1        0.0267
     16 H           3.2646   -0.7249    0.0000 H       1  UNL1        0.0267
     17 H           5.9316   -0.7249    0.0000 H       1  UNL1        0.0345
     18 H           6.7287   -0.7249    0.0000 H       1  UNL1        0.0345
     19 H           2.3100    0.7869    0.0000 H       1  UNL1        0.0230
     20 H           1.4631    0.5600    0.0000 H       1  UNL1        0.0230
     21 H           1.6900   -0.2869    0.0000 H       1  UNL1        0.0230
     22 H           7.7522   -0.7869    0.0000 H       1  UNL1        0.0306
     23 H           8.5991   -0.5600    0.0000 H       1  UNL1        0.0306
     24 H           8.3722    0.2869    0.0000 H       1  UNL1        0.0306
@<TRIPOS>BOND
     1     1     5    2
     2     2     9    2
     3     3     5    1
     4     3     6    1
     5     3    11    1
     6     3    12    1
     7     4     5    1
     8     4     7    1
     9     4    13    1
    10     4    14    1
    11     6     8    1
    12     6    15    1
    13     6    16    1
    14     7     9    1
    15     7    17    1
    16     7    18    1
    17     8    19    1
    18     8    20    1
    19     8    21    1
    20     9    10    1
    21    10    22    1
    22    10    23    1
    23    10    24    1
