@<TRIPOS>MOLECULE
IMPHY000796
 41 43 0 0 0
SMALL
GASTEIGER

@<TRIPOS>ATOM
      1 O           4.0421    0.0721    0.0000 O.3     1  UNL1       -0.3636
      2 O           4.8511   -4.5156    0.0000 O.3     1  UNL1       -0.5068
      3 O           2.0000    4.2593    0.0000 O.3     1  UNL1       -0.5068
      4 C           5.6602    0.0721    0.0000 C.3     1  UNL1       -0.0081
      5 C           5.3511    1.0232    0.0000 C.3     1  UNL1       -0.0081
      6 C           4.8511   -0.5157    0.0000 C.3     1  UNL1        0.0873
      7 C           4.3511    1.0232    0.0000 C.3     1  UNL1        0.0873
      8 C           6.6112   -0.2369    0.0000 C.3     1  UNL1       -0.0594
      9 C           5.9389    1.8322    0.0000 C.3     1  UNL1       -0.0594
     10 C           4.8511   -1.5156    0.0000 C.ar    1  UNL1       -0.0184
     11 C           3.7634    1.8322    0.0000 C.ar    1  UNL1       -0.0184
     12 C           3.9851   -2.0156    0.0000 C.ar    1  UNL1       -0.0527
     13 C           4.1701    2.7458    0.0000 C.ar    1  UNL1       -0.0527
     14 C           5.7172   -2.0156    0.0000 C.ar    1  UNL1       -0.0527
     15 C           2.7688    1.7277    0.0000 C.ar    1  UNL1       -0.0527
     16 C           3.9851   -3.0156    0.0000 C.ar    1  UNL1       -0.0198
     17 C           3.5823    3.5548    0.0000 C.ar    1  UNL1       -0.0198
     18 C           5.7172   -3.0156    0.0000 C.ar    1  UNL1       -0.0198
     19 C           2.1810    2.5367    0.0000 C.ar    1  UNL1       -0.0198
     20 C           2.5878    3.4502    0.0000 C.ar    1  UNL1        0.1169
     21 C           4.8511   -3.5156    0.0000 C.ar    1  UNL1        0.1169
     22 H           5.0697    1.5756    0.0000 H       1  UNL1        0.0330
     23 H           6.0986    0.5105    0.0000 H       1  UNL1        0.0330
     24 H           5.4036   -0.7971    0.0000 H       1  UNL1        0.0649
     25 H           4.6326    1.5756    0.0000 H       1  UNL1        0.0649
     26 H           6.4196   -0.8265    0.0000 H       1  UNL1        0.0233
     27 H           7.2009   -0.4285    0.0000 H       1  UNL1        0.0233
     28 H           6.8028    0.3528    0.0000 H       1  UNL1        0.0233
     29 H           6.4405    1.4678    0.0000 H       1  UNL1        0.0233
     30 H           6.3034    2.3338    0.0000 H       1  UNL1        0.0233
     31 H           5.4373    2.1966    0.0000 H       1  UNL1        0.0233
     32 H           3.4482   -1.7056    0.0000 H       1  UNL1        0.0622
     33 H           4.7867    2.8106    0.0000 H       1  UNL1        0.0622
     34 H           6.2541   -1.7056    0.0000 H       1  UNL1        0.0622
     35 H           2.5167    1.1613    0.0000 H       1  UNL1        0.0622
     36 H           3.4482   -3.3256    0.0000 H       1  UNL1        0.0654
     37 H           3.8345    4.1212    0.0000 H       1  UNL1        0.0654
     38 H           6.2541   -3.3256    0.0000 H       1  UNL1        0.0654
     39 H           1.5644    2.4719    0.0000 H       1  UNL1        0.0654
     40 H           5.3881   -4.8257    0.0000 H       1  UNL1        0.2921
     41 H           2.2522    4.8257    0.0000 H       1  UNL1        0.2921
@<TRIPOS>BOND
     1     1     6    1
     2     1     7    1
     3     2    21    1
     4     2    40    1
     5     3    20    1
     6     3    41    1
     7     4     5    1
     8     4     6    1
     9     4     8    1
    10     4    23    1
    11     5     7    1
    12     5     9    1
    13     5    22    1
    14     6    10    1
    15     6    24    1
    16     7    11    1
    17     7    25    1
    18     8    26    1
    19     8    27    1
    20     8    28    1
    21     9    29    1
    22     9    30    1
    23     9    31    1
    24    10    12   ar
    25    10    14   ar
    26    11    13   ar
    27    11    15   ar
    28    12    16   ar
    29    12    32    1
    30    13    17   ar
    31    13    33    1
    32    14    18   ar
    33    14    34    1
    34    15    19   ar
    35    15    35    1
    36    16    21   ar
    37    16    36    1
    38    17    20   ar
    39    17    37    1
    40    18    21   ar
    41    18    38    1
    42    19    20   ar
    43    19    39    1
