@<TRIPOS>MOLECULE
IMPHY001414
 75 80 0 0 0
SMALL
GASTEIGER

@<TRIPOS>ATOM
      1 O           4.6408   -2.2014    0.0000 O.3     1  UNL1       -0.3601
      2 O           5.5071    1.2991    0.0000 O.3     1  UNL1       -0.4571
      3 O           7.2391    0.2991    0.0000 O.3     1  UNL1       -0.4537
      4 O          10.0341   -3.2532    0.0000 O.3     1  UNL1       -0.3918
      5 O           3.1567    1.7502    0.0000 O.2     1  UNL1       -0.2974
      6 O           4.0071    2.1652    0.0000 O.2     1  UNL1       -0.2512
      7 O           6.3731    1.7991    0.0000 O.2     1  UNL1       -0.2449
      8 C           4.6410   -1.2009    0.0000 C.3     1  UNL1        0.1090
      9 C           5.5071   -1.7009    0.0000 C.3     1  UNL1        0.1066
     10 C           4.6410   -0.2009    0.0000 C.3     1  UNL1        0.0496
     11 C           6.3731   -1.2009    0.0000 C.3     1  UNL1        0.0372
     12 C           7.2831   -1.7078    0.0000 C.3     1  UNL1       -0.0200
     13 C           3.6948   -1.5056    0.0000 C.3     1  UNL1       -0.0197
     14 C           5.5071    0.2991    0.0000 C.3     1  UNL1        0.1488
     15 C           5.4910   -2.7424    0.0000 C.3     1  UNL1       -0.0203
     16 C           6.3731   -0.2009    0.0000 C.3     1  UNL1        0.1467
     17 C           3.6948    0.1038    0.0000 C.3     1  UNL1        0.0289
     18 C           7.2911   -2.7494    0.0000 C.3     1  UNL1       -0.0327
     19 C           3.1112   -0.7009    0.0000 C.3     1  UNL1       -0.0401
     20 C           6.3890   -3.2702    0.0000 C.3     1  UNL1       -0.0469
     21 C           4.6410    0.7991    0.0000 C.3     1  UNL1       -0.0527
     22 C           8.2099   -1.1437    0.0000 C.3     1  UNL1       -0.0446
     23 C           7.2754   -0.7078    0.0000 C.3     1  UNL1       -0.0588
     24 C           8.2266   -3.2991    0.0000 C.3     1  UNL1       -0.0235
     25 C           2.9505    0.7717    0.0000 C.2     1  UNL1        0.1341
     26 C           9.1578   -1.6716    0.0000 C.3     1  UNL1       -0.0263
     27 C           9.1662   -2.7566    0.0000 C.3     1  UNL1        0.0555
     28 C           2.0000    0.4610    0.0000 C.3     1  UNL1       -0.0058
     29 C           5.0071    2.1651    0.0000 C.2     1  UNL1        0.3043
     30 C           7.2391    1.2991    0.0000 C.2     1  UNL1        0.3396
     31 C           5.5071    3.0311    0.0000 C.3     1  UNL1        0.0332
     32 C           8.1051    1.7991    0.0000 C.ar    1  UNL1        0.0590
     33 C           8.9712    1.2991    0.0000 C.ar    1  UNL1       -0.0478
     34 C           8.1051    2.7991    0.0000 C.ar    1  UNL1       -0.0478
     35 C           9.8372    1.7991    0.0000 C.ar    1  UNL1       -0.0610
     36 C           8.9712    3.2991    0.0000 C.ar    1  UNL1       -0.0610
     37 C           9.8372    2.7991    0.0000 C.ar    1  UNL1       -0.0617
     38 H           7.1059   -0.7703    0.0000 H       1  UNL1        0.0372
     39 H           3.1574   -1.8149    0.0000 H       1  UNL1        0.0294
     40 H           3.9458   -2.0726    0.0000 H       1  UNL1        0.0294
     41 H           6.0440    0.6091    0.0000 H       1  UNL1        0.0778
     42 H           4.8819   -2.6269    0.0000 H       1  UNL1        0.0294
     43 H           5.2730   -3.3228    0.0000 H       1  UNL1        0.0294
     44 H           6.9100   -0.5109    0.0000 H       1  UNL1        0.0776
     45 H           4.0037    0.6414    0.0000 H       1  UNL1        0.0385
     46 H           7.2878   -3.5994    0.0000 H       1  UNL1        0.0307
     47 H           2.6503   -0.2862    0.0000 H       1  UNL1        0.0273
     48 H           2.6503   -1.1156    0.0000 H       1  UNL1        0.0273
     49 H           5.9881   -3.7431    0.0000 H       1  UNL1        0.0269
     50 H           6.7864   -3.7462    0.0000 H       1  UNL1        0.0269
     51 H           5.2610    0.7991    0.0000 H       1  UNL1        0.0237
     52 H           4.6410    1.4191    0.0000 H       1  UNL1        0.0237
     53 H           4.0210    0.7991    0.0000 H       1  UNL1        0.0237
     54 H           8.5998   -0.6616    0.0000 H       1  UNL1        0.0272
     55 H           7.8017   -0.6770    0.0000 H       1  UNL1        0.0272
     56 H           7.8954   -0.7030    0.0000 H       1  UNL1        0.0235
     57 H           7.2706   -0.0878    0.0000 H       1  UNL1        0.0235
     58 H           6.6554   -0.7126    0.0000 H       1  UNL1        0.0235
     59 H           7.8256   -3.7720    0.0000 H       1  UNL1        0.0293
     60 H           8.6238   -3.7751    0.0000 H       1  UNL1        0.0293
     61 H           9.7695   -1.7730    0.0000 H       1  UNL1        0.0290
     62 H           9.3624   -1.0863    0.0000 H       1  UNL1        0.0290
     63 H           9.1674   -3.3766    0.0000 H       1  UNL1        0.0593
     64 H           1.8074    1.0503    0.0000 H       1  UNL1        0.0306
     65 H           1.4107    0.2684    0.0000 H       1  UNL1        0.0306
     66 H           2.1926   -0.1283    0.0000 H       1  UNL1        0.0306
     67 H          10.5699   -2.9412    0.0000 H       1  UNL1        0.2098
     68 H           6.0440    2.7211    0.0000 H       1  UNL1        0.0342
     69 H           5.8171    3.5681    0.0000 H       1  UNL1        0.0342
     70 H           4.9701    3.3411    0.0000 H       1  UNL1        0.0342
     71 H           8.9712    0.6791    0.0000 H       1  UNL1        0.0626
     72 H           7.5682    3.1091    0.0000 H       1  UNL1        0.0626
     73 H          10.3741    1.4891    0.0000 H       1  UNL1        0.0618
     74 H           8.9712    3.9191    0.0000 H       1  UNL1        0.0618
     75 H          10.3741    3.1091    0.0000 H       1  UNL1        0.0618
@<TRIPOS>BOND
     1     8     1    1
     2     9     1    1
     3    14     2    1
     4     2    29    1
     5    16     3    1
     6     3    30    1
     7    27     4    1
     8     4    67    1
     9     5    25    2
    10     6    29    2
    11     7    30    2
    12     8     9    1
    13     8    10    1
    14     8    13    1
    15     9    11    1
    16     9    15    1
    17    10    14    1
    18    10    17    1
    19    10    21    1
    20    11    12    1
    21    11    16    1
    22    11    38    1
    23    12    18    1
    24    12    22    1
    25    12    23    1
    26    13    19    1
    27    13    39    1
    28    13    40    1
    29    14    16    1
    30    14    41    1
    31    15    20    1
    32    15    42    1
    33    15    43    1
    34    16    44    1
    35    17    19    1
    36    17    25    1
    37    17    45    1
    38    18    20    1
    39    18    24    1
    40    18    46    1
    41    19    47    1
    42    19    48    1
    43    20    49    1
    44    20    50    1
    45    21    51    1
    46    21    52    1
    47    21    53    1
    48    22    26    1
    49    22    54    1
    50    22    55    1
    51    23    56    1
    52    23    57    1
    53    23    58    1
    54    24    27    1
    55    24    59    1
    56    24    60    1
    57    25    28    1
    58    26    27    1
    59    26    61    1
    60    26    62    1
    61    27    63    1
    62    28    64    1
    63    28    65    1
    64    28    66    1
    65    29    31    1
    66    30    32    1
    67    31    68    1
    68    31    69    1
    69    31    70    1
    70    32    33   ar
    71    32    34   ar
    72    33    35   ar
    73    33    71    1
    74    34    36   ar
    75    34    72    1
    76    35    37   ar
    77    35    73    1
    78    36    37   ar
    79    36    74    1
    80    37    75    1
