@<TRIPOS>MOLECULE
IMPHY016261
 25 25 0 0 0
SMALL
GASTEIGER

@<TRIPOS>ATOM
      1 O           5.3692    1.5194    0.0000 O.2     1  UNL1       -0.2960
      2 C           3.6942   -0.5684    0.0000 C.3     1  UNL1        0.0079
      3 C           4.0032   -1.5194    0.0000 C.3     1  UNL1       -0.0387
      4 C           5.0032   -1.5194    0.0000 C.3     1  UNL1       -0.0305
      5 C           4.5032    0.0194    0.0000 C.2     1  UNL1       -0.0022
      6 C           5.3122   -0.5684    0.0000 C.2     1  UNL1       -0.0658
      7 C           2.7431   -0.2593    0.0000 C.2     1  UNL1       -0.0722
      8 C           6.2633   -0.2593    0.0000 C.3     1  UNL1       -0.0431
      9 C           4.5032    1.0194    0.0000 C.2     1  UNL1        0.1468
     10 C           2.0000   -0.9285    0.0000 C.3     1  UNL1       -0.0435
     11 C           2.5352    0.7188    0.0000 C.2     1  UNL1       -0.0991
     12 H           3.2558   -1.0068    0.0000 H       1  UNL1        0.0395
     13 H           3.3968   -1.6483    0.0000 H       1  UNL1        0.0277
     14 H           4.0680   -2.1360    0.0000 H       1  UNL1        0.0277
     15 H           4.9384   -2.1360    0.0000 H       1  UNL1        0.0310
     16 H           5.6097   -1.6483    0.0000 H       1  UNL1        0.0310
     17 H           6.4549   -0.8490    0.0000 H       1  UNL1        0.0275
     18 H           6.8530   -0.0678    0.0000 H       1  UNL1        0.0275
     19 H           6.0717    0.3303    0.0000 H       1  UNL1        0.0275
     20 H           3.9663    1.3294    0.0000 H       1  UNL1        0.1078
     21 H           1.5851   -0.4677    0.0000 H       1  UNL1        0.0274
     22 H           1.5392   -1.3433    0.0000 H       1  UNL1        0.0274
     23 H           2.4149   -1.3892    0.0000 H       1  UNL1        0.0274
     24 H           2.9960    1.1337    0.0000 H       1  UNL1        0.0534
     25 H           1.9456    0.9104    0.0000 H       1  UNL1        0.0534
@<TRIPOS>BOND
     1     1     9    2
     2     2     3    1
     3     2     5    1
     4     2     7    1
     5     2    12    1
     6     3     4    1
     7     3    13    1
     8     3    14    1
     9     4     6    1
    10     4    15    1
    11     4    16    1
    12     5     6    2
    13     5     9    1
    14     6     8    1
    15     7    10    1
    16     7    11    2
    17     8    17    1
    18     8    18    1
    19     8    19    1
    20     9    20    1
    21    10    21    1
    22    10    22    1
    23    10    23    1
    24    11    24    1
    25    11    25    1
