@<TRIPOS>MOLECULE
IMPHY015942
 18 18 0 0 0
SMALL
GASTEIGER

@<TRIPOS>ATOM
      1 S           5.0480   -0.3665    0.0000 S.2     1  UNL1       -0.0801
      2 O           2.1289   -1.3749    0.0000 O.3     1  UNL1       -0.3947
      3 N           5.5480    1.1723    0.0000 N.ar    1  UNL1       -0.2523
      4 C           3.2879   -0.0877    0.0000 C.3     1  UNL1        0.0036
      5 C           4.2389    0.2213    0.0000 C.ar    1  UNL1        0.0143
      6 C           4.5480    1.1723    0.0000 C.ar    1  UNL1        0.0486
      7 C           3.0800   -1.0659    0.0000 C.3     1  UNL1        0.0487
      8 C           3.9602    1.9814    0.0000 C.3     1  UNL1       -0.0216
      9 C           5.8570    0.2213    0.0000 C.ar    1  UNL1        0.0652
     10 H           3.2016    0.5262    0.0000 H       1  UNL1        0.0341
     11 H           2.6682   -0.0661    0.0000 H       1  UNL1        0.0341
     12 H           3.1662   -1.6798    0.0000 H       1  UNL1        0.0560
     13 H           3.6996   -1.0875    0.0000 H       1  UNL1        0.0560
     14 H           4.4618    2.3458    0.0000 H       1  UNL1        0.0293
     15 H           3.5957    2.4829    0.0000 H       1  UNL1        0.0293
     16 H           3.4586    1.6169    0.0000 H       1  UNL1        0.0293
     17 H           6.4466    0.0297    0.0000 H       1  UNL1        0.0907
     18 H           2.0000   -1.9814    0.0000 H       1  UNL1        0.2094
@<TRIPOS>BOND
     1     1     5   ar
     2     1     9   ar
     3     2     7    1
     4     2    18    1
     5     3     6   ar
     6     3     9   ar
     7     4     5    1
     8     4     7    1
     9     4    10    1
    10     4    11    1
    11     5     6   ar
    12     6     8    1
    13     7    12    1
    14     7    13    1
    15     8    14    1
    16     8    15    1
    17     8    16    1
    18     9    17    1
