@<TRIPOS>MOLECULE
IMPHY010841
 58 57 0 0 0
SMALL
GASTEIGER

@<TRIPOS>ATOM
      1 O           3.7320   -2.2500    0.0000 O.3     1  UNL1       -0.4649
      2 O           4.5981   -3.7500    0.0000 O.2     1  UNL1       -0.2509
      3 C           8.0622   -2.7500    0.0000 C.3     1  UNL1       -0.0530
      4 C           8.9282   -2.2500    0.0000 C.3     1  UNL1       -0.0528
      5 C           7.1962   -2.2500    0.0000 C.3     1  UNL1       -0.0526
      6 C           9.7942   -2.7500    0.0000 C.3     1  UNL1       -0.0496
      7 C           6.3301   -2.7500    0.0000 C.3     1  UNL1       -0.0430
      8 C          10.6603   -2.2500    0.0000 C.3     1  UNL1       -0.0348
      9 C           5.4641   -2.2500    0.0000 C.3     1  UNL1        0.0449
     10 C          12.3923    1.7500    0.0000 C.3     1  UNL1       -0.0496
     11 C          11.5263    2.2500    0.0000 C.3     1  UNL1       -0.0530
     12 C          11.5263   -2.7500    0.0000 C.2     1  UNL1       -0.0876
     13 C          12.3923    0.7500    0.0000 C.3     1  UNL1       -0.0348
     14 C          11.5263    3.2500    0.0000 C.3     1  UNL1       -0.0559
     15 C           4.5981   -2.7500    0.0000 C.2     1  UNL1        0.3071
     16 C          12.3923   -2.2500    0.0000 C.2     1  UNL1       -0.0842
     17 C          12.3923   -1.2500    0.0000 C.3     1  UNL1       -0.0165
     18 C          13.2583    0.2500    0.0000 C.2     1  UNL1       -0.0876
     19 C          13.2583   -0.7500    0.0000 C.2     1  UNL1       -0.0842
     20 C          10.6603    3.7500    0.0000 C.3     1  UNL1       -0.0653
     21 C           2.8660   -2.7500    0.0000 C.3     1  UNL1        0.0896
     22 C           2.0000   -2.2500    0.0000 C.3     1  UNL1       -0.0306
     23 H           7.6636   -3.2250    0.0000 H       1  UNL1        0.0265
     24 H           8.4607   -3.2250    0.0000 H       1  UNL1        0.0265
     25 H           9.3267   -1.7750    0.0000 H       1  UNL1        0.0265
     26 H           8.5297   -1.7750    0.0000 H       1  UNL1        0.0265
     27 H           7.5947   -1.7750    0.0000 H       1  UNL1        0.0265
     28 H           6.7976   -1.7750    0.0000 H       1  UNL1        0.0265
     29 H           9.3957   -3.2250    0.0000 H       1  UNL1        0.0268
     30 H          10.1928   -3.2250    0.0000 H       1  UNL1        0.0268
     31 H           5.9316   -3.2250    0.0000 H       1  UNL1        0.0270
     32 H           6.7287   -3.2250    0.0000 H       1  UNL1        0.0270
     33 H          11.0588   -1.7750    0.0000 H       1  UNL1        0.0307
     34 H          10.2617   -1.7750    0.0000 H       1  UNL1        0.0307
     35 H           5.8626   -1.7750    0.0000 H       1  UNL1        0.0377
     36 H           5.0656   -1.7750    0.0000 H       1  UNL1        0.0377
     37 H          13.0029    1.6423    0.0000 H       1  UNL1        0.0268
     38 H          12.6044    2.3326    0.0000 H       1  UNL1        0.0268
     39 H          10.9157    2.3577    0.0000 H       1  UNL1        0.0265
     40 H          11.3142    1.6674    0.0000 H       1  UNL1        0.0265
     41 H          11.5263   -3.3700    0.0000 H       1  UNL1        0.0569
     42 H          11.7817    0.8577    0.0000 H       1  UNL1        0.0307
     43 H          12.1803    0.1674    0.0000 H       1  UNL1        0.0307
     44 H          12.1369    3.1423    0.0000 H       1  UNL1        0.0263
     45 H          11.7383    3.8326    0.0000 H       1  UNL1        0.0263
     46 H          12.9292   -2.5600    0.0000 H       1  UNL1        0.0572
     47 H          12.1803   -0.6674    0.0000 H       1  UNL1        0.0350
     48 H          11.7817   -1.3577    0.0000 H       1  UNL1        0.0350
     49 H          13.7953    0.5600    0.0000 H       1  UNL1        0.0569
     50 H          13.7953   -1.0600    0.0000 H       1  UNL1        0.0572
     51 H          10.9703    4.2869    0.0000 H       1  UNL1        0.0230
     52 H          10.1233    4.0600    0.0000 H       1  UNL1        0.0230
     53 H          10.3503    3.2131    0.0000 H       1  UNL1        0.0230
     54 H           2.4675   -3.2250    0.0000 H       1  UNL1        0.0694
     55 H           3.2646   -3.2250    0.0000 H       1  UNL1        0.0694
     56 H           2.3100   -1.7131    0.0000 H       1  UNL1        0.0262
     57 H           1.4631   -1.9400    0.0000 H       1  UNL1        0.0262
     58 H           1.6900   -2.7869    0.0000 H       1  UNL1        0.0262
@<TRIPOS>BOND
     1     1    15    1
     2     1    21    1
     3     2    15    2
     4     3     4    1
     5     3     5    1
     6     3    23    1
     7     3    24    1
     8     4     6    1
     9     4    25    1
    10     4    26    1
    11     5     7    1
    12     5    27    1
    13     5    28    1
    14     6     8    1
    15     6    29    1
    16     6    30    1
    17     7     9    1
    18     7    31    1
    19     7    32    1
    20     8    12    1
    21     8    33    1
    22     8    34    1
    23     9    15    1
    24     9    35    1
    25     9    36    1
    26    10    11    1
    27    10    13    1
    28    10    37    1
    29    10    38    1
    30    11    14    1
    31    11    39    1
    32    11    40    1
    33    12    16    2
    34    12    41    1
    35    13    18    1
    36    13    42    1
    37    13    43    1
    38    14    20    1
    39    14    44    1
    40    14    45    1
    41    16    17    1
    42    16    46    1
    43    17    19    1
    44    17    47    1
    45    17    48    1
    46    18    19    2
    47    18    49    1
    48    19    50    1
    49    20    51    1
    50    20    52    1
    51    20    53    1
    52    21    22    1
    53    21    54    1
    54    21    55    1
    55    22    56    1
    56    22    57    1
    57    22    58    1
