@<TRIPOS>MOLECULE
IMPHY002353
 77 80 0 0 0
SMALL
GASTEIGER

@<TRIPOS>ATOM
      1 O           7.9288   -2.2009    0.0000 O.3     1  UNL1       -0.3876
      2 O           7.0628    1.2991    0.0000 O.3     1  UNL1       -0.4571
      3 O           5.3307    0.2991    0.0000 O.3     1  UNL1       -0.4573
      4 O           9.4131    1.7502    0.0000 O.2     1  UNL1       -0.2974
      5 O           2.5357   -3.2532    0.0000 O.3     1  UNL1       -0.3915
      6 O           6.1968    1.7991    0.0000 O.2     1  UNL1       -0.2508
      7 O           8.5628    2.1651    0.0000 O.2     1  UNL1       -0.2512
      8 C           7.9288   -0.2009    0.0000 C.3     1  UNL1        0.0469
      9 C           7.9288   -1.2009    0.0000 C.3     1  UNL1        0.0791
     10 C           7.0628   -1.7009    0.0000 C.3     1  UNL1       -0.0010
     11 C           6.1968   -1.2009    0.0000 C.3     1  UNL1        0.0145
     12 C           7.0628    0.2991    0.0000 C.3     1  UNL1        0.1486
     13 C           5.2868   -1.7078    0.0000 C.3     1  UNL1       -0.0043
     14 C           6.1968   -0.2009    0.0000 C.3     1  UNL1        0.1443
     15 C           8.8750    0.1038    0.0000 C.3     1  UNL1        0.0288
     16 C           8.8750   -1.5056    0.0000 C.3     1  UNL1       -0.0224
     17 C           9.4586   -0.7009    0.0000 C.3     1  UNL1       -0.0402
     18 C           7.0789   -2.7424    0.0000 C.3     1  UNL1       -0.0286
     19 C           7.9288    0.7991    0.0000 C.3     1  UNL1       -0.0527
     20 C           5.2787   -2.7494    0.0000 C.2     1  UNL1       -0.0647
     21 C           4.3599   -1.1437    0.0000 C.3     1  UNL1       -0.0412
     22 C           6.1808   -3.2702    0.0000 C.2     1  UNL1       -0.0838
     23 C           5.2945   -0.7078    0.0000 C.3     1  UNL1       -0.0555
     24 C           9.6193    0.7717    0.0000 C.2     1  UNL1        0.1341
     25 C           4.3433   -3.2991    0.0000 C.3     1  UNL1       -0.0051
     26 C           3.4120   -1.6716    0.0000 C.3     1  UNL1       -0.0258
     27 C           3.4037   -2.7566    0.0000 C.3     1  UNL1        0.0590
     28 C          10.5699    0.4610    0.0000 C.3     1  UNL1       -0.0058
     29 C           5.3307    1.2991    0.0000 C.2     1  UNL1        0.3077
     30 C           7.5628    2.1651    0.0000 C.2     1  UNL1        0.3043
     31 C           4.4647    1.7991    0.0000 C.3     1  UNL1        0.0473
     32 C           7.0628    3.0311    0.0000 C.3     1  UNL1        0.0332
     33 C           4.4647    2.7991    0.0000 C.3     1  UNL1       -0.0367
     34 C           3.5987    3.2991    0.0000 C.3     1  UNL1       -0.0622
     35 C           5.3307    3.2991    0.0000 C.3     1  UNL1       -0.0622
     36 H           7.8022   -2.1202    0.0000 H       1  UNL1        0.0336
     37 H           6.9329   -0.7759    0.0000 H       1  UNL1        0.0350
     38 H           6.5259    0.6091    0.0000 H       1  UNL1        0.0778
     39 H           6.1968    0.4191    0.0000 H       1  UNL1        0.0775
     40 H           8.5662    0.6414    0.0000 H       1  UNL1        0.0385
     41 H           8.6240   -2.0726    0.0000 H       1  UNL1        0.0293
     42 H           9.4124   -1.8149    0.0000 H       1  UNL1        0.0293
     43 H           9.9195   -1.1156    0.0000 H       1  UNL1        0.0273
     44 H           9.9195   -0.2862    0.0000 H       1  UNL1        0.0273
     45 H           7.2969   -3.3228    0.0000 H       1  UNL1        0.0311
     46 H           7.6880   -2.6269    0.0000 H       1  UNL1        0.0311
     47 H           8.5488    0.7991    0.0000 H       1  UNL1        0.0237
     48 H           7.9288    1.4191    0.0000 H       1  UNL1        0.0237
     49 H           7.3088    0.7991    0.0000 H       1  UNL1        0.0237
     50 H           4.7681   -0.6770    0.0000 H       1  UNL1        0.0274
     51 H           3.9700   -0.6616    0.0000 H       1  UNL1        0.0274
     52 H           6.1832   -3.8902    0.0000 H       1  UNL1        0.0572
     53 H           8.4658   -2.5109    0.0000 H       1  UNL1        0.2102
     54 H           5.9145   -0.7126    0.0000 H       1  UNL1        0.0238
     55 H           5.2993   -0.0878    0.0000 H       1  UNL1        0.0238
     56 H           4.6745   -0.7030    0.0000 H       1  UNL1        0.0238
     57 H           3.9460   -3.7751    0.0000 H       1  UNL1        0.0335
     58 H           4.7443   -3.7720    0.0000 H       1  UNL1        0.0335
     59 H           3.2075   -1.0863    0.0000 H       1  UNL1        0.0290
     60 H           2.8004   -1.7730    0.0000 H       1  UNL1        0.0290
     61 H           2.8686   -2.4435    0.0000 H       1  UNL1        0.0596
     62 H          10.3773   -0.1283    0.0000 H       1  UNL1        0.0306
     63 H          11.1592    0.2684    0.0000 H       1  UNL1        0.0306
     64 H          10.7625    1.0503    0.0000 H       1  UNL1        0.0306
     65 H           2.0000   -2.9412    0.0000 H       1  UNL1        0.2098
     66 H           3.8541    1.9068    0.0000 H       1  UNL1        0.0380
     67 H           4.2527    1.2165    0.0000 H       1  UNL1        0.0380
     68 H           7.5997    3.3411    0.0000 H       1  UNL1        0.0342
     69 H           6.7528    3.5681    0.0000 H       1  UNL1        0.0342
     70 H           6.5259    2.7211    0.0000 H       1  UNL1        0.0342
     71 H           3.9278    2.4891    0.0000 H       1  UNL1        0.0301
     72 H           5.6407    2.7622    0.0000 H       1  UNL1        0.0232
     73 H           5.8677    3.6091    0.0000 H       1  UNL1        0.0232
     74 H           5.0207    3.8360    0.0000 H       1  UNL1        0.0232
     75 H           3.9087    3.8360    0.0000 H       1  UNL1        0.0232
     76 H           3.0618    3.6091    0.0000 H       1  UNL1        0.0232
     77 H           3.2887    2.7622    0.0000 H       1  UNL1        0.0232
@<TRIPOS>BOND
     1     9     1    1
     2     1    53    1
     3    12     2    1
     4     2    30    1
     5    14     3    1
     6     3    29    1
     7     4    24    2
     8    27     5    1
     9     5    65    1
    10     6    29    2
    11     7    30    2
    12     8     9    1
    13     8    12    1
    14     8    15    1
    15     8    19    1
    16     9    10    1
    17     9    16    1
    18    10    11    1
    19    10    18    1
    20    10    36    1
    21    11    13    1
    22    11    14    1
    23    11    37    1
    24    12    14    1
    25    12    38    1
    26    13    20    1
    27    13    21    1
    28    13    23    1
    29    14    39    1
    30    15    17    1
    31    15    24    1
    32    15    40    1
    33    16    17    1
    34    16    41    1
    35    16    42    1
    36    17    43    1
    37    17    44    1
    38    18    22    1
    39    18    45    1
    40    18    46    1
    41    19    47    1
    42    19    48    1
    43    19    49    1
    44    20    22    2
    45    20    25    1
    46    21    26    1
    47    21    50    1
    48    21    51    1
    49    22    52    1
    50    23    54    1
    51    23    55    1
    52    23    56    1
    53    24    28    1
    54    25    27    1
    55    25    57    1
    56    25    58    1
    57    26    27    1
    58    26    59    1
    59    26    60    1
    60    27    61    1
    61    28    62    1
    62    28    63    1
    63    28    64    1
    64    29    31    1
    65    30    32    1
    66    31    33    1
    67    31    66    1
    68    31    67    1
    69    32    68    1
    70    32    69    1
    71    32    70    1
    72    33    34    1
    73    33    35    1
    74    33    71    1
    75    34    75    1
    76    34    76    1
    77    34    77    1
    78    35    72    1
    79    35    73    1
    80    35    74    1
