@<TRIPOS>MOLECULE
IMPHY006524
 40 43 0 0 0
SMALL
GASTEIGER

@<TRIPOS>ATOM
      1 O           3.6538    2.4324    0.0000 O.3     1  UNL1       -0.3674
      2 C           4.0791   -0.7554    0.0000 C.3     1  UNL1       -0.0229
      3 C           3.5791    1.4352    0.0000 C.3     1  UNL1        0.1009
      4 C           3.1781   -0.3215    0.0000 C.3     1  UNL1       -0.0273
      5 C           2.9556    0.6534    0.0000 C.3     1  UNL1       -0.0001
      6 C           4.5791    1.4352    0.0000 C.3     1  UNL1       -0.0086
      7 C           3.9722    0.4214    0.0000 C.3     1  UNL1       -0.0413
      8 C           4.9800   -0.3215    0.0000 C.3     1  UNL1       -0.0465
      9 C           3.9431   -1.7401    0.0000 C.3     1  UNL1       -0.0379
     10 C           5.2025    0.6534    0.0000 C.3     1  UNL1       -0.0470
     11 C           2.4930   -1.0418    0.0000 C.3     1  UNL1       -0.0489
     12 C           2.7528    1.9986    0.0000 C.3     1  UNL1        0.0783
     13 C           2.9648   -1.9168    0.0000 C.3     1  UNL1       -0.0497
     14 C           2.0000    0.3587    0.0000 C.3     1  UNL1       -0.0568
     15 C           2.2225    1.3336    0.0000 C.3     1  UNL1       -0.0568
     16 C           4.6647   -2.4324    0.0000 C.3     1  UNL1       -0.0619
     17 H           2.3584   -0.0964    0.0000 H       1  UNL1        0.0312
     18 H           4.7682    2.2639    0.0000 H       1  UNL1        0.0330
     19 H           3.5644    0.8884    0.0000 H       1  UNL1        0.0274
     20 H           3.4022    0.1775    0.0000 H       1  UNL1        0.0274
     21 H           5.1180   -0.9260    0.0000 H       1  UNL1        0.0271
     22 H           5.6000   -0.3215    0.0000 H       1  UNL1        0.0271
     23 H           3.7640   -2.3337    0.0000 H       1  UNL1        0.0304
     24 H           5.7612    0.3844    0.0000 H       1  UNL1        0.0269
     25 H           5.5891    1.1382    0.0000 H       1  UNL1        0.0269
     26 H           2.0911   -0.5697    0.0000 H       1  UNL1        0.0268
     27 H           1.9812   -1.3918    0.0000 H       1  UNL1        0.0268
     28 H           2.3909    2.5020    0.0000 H       1  UNL1        0.0589
     29 H           2.3199    1.5547    0.0000 H       1  UNL1        0.0589
     30 H           2.3912   -2.1521    0.0000 H       1  UNL1        0.0268
     31 H           3.1385   -2.5120    0.0000 H       1  UNL1        0.0268
     32 H           1.8172    0.9511    0.0000 H       1  UNL1        0.0236
     33 H           1.4075    0.1759    0.0000 H       1  UNL1        0.0236
     34 H           2.1828   -0.2338    0.0000 H       1  UNL1        0.0236
     35 H           2.6442    1.7881    0.0000 H       1  UNL1        0.0236
     36 H           1.7680    1.7553    0.0000 H       1  UNL1        0.0236
     37 H           1.8008    0.8791    0.0000 H       1  UNL1        0.0236
     38 H           4.2354   -2.8798    0.0000 H       1  UNL1        0.0233
     39 H           5.1121   -2.8617    0.0000 H       1  UNL1        0.0233
     40 H           5.0939   -1.9851    0.0000 H       1  UNL1        0.0233
@<TRIPOS>BOND
     1     3     1    1
     2     1    12    1
     3     2     4    1
     4     2     7    1
     5     2     8    1
     6     2     9    1
     7     3     5    1
     8     3     6    1
     9     3    12    1
    10     4     5    1
    11     4    11    1
    12     4    17    1
    13     5    14    1
    14     5    15    1
    15     6     7    1
    16     6    10    1
    17     6    18    1
    18     7    19    1
    19     7    20    1
    20     8    10    1
    21     8    21    1
    22     8    22    1
    23     9    13    1
    24     9    16    1
    25     9    23    1
    26    10    24    1
    27    10    25    1
    28    11    13    1
    29    11    26    1
    30    11    27    1
    31    12    28    1
    32    12    29    1
    33    13    30    1
    34    13    31    1
    35    14    32    1
    36    14    33    1
    37    14    34    1
    38    15    35    1
    39    15    36    1
    40    15    37    1
    41    16    38    1
    42    16    39    1
    43    16    40    1
