@<TRIPOS>MOLECULE
IMPHY016741
 48 47 0 0 0
SMALL
GASTEIGER

@<TRIPOS>ATOM
      1 O          11.5263   -0.5950    0.0000 O.3     1  UNL1       -0.3912
      2 O          14.1244    0.9050    0.0000 O.3     1  UNL1       -0.4679
      3 O          13.2583   -0.5950    0.0000 O.2     1  UNL1       -0.2508
      4 C           8.0622    0.4050    0.0000 C.3     1  UNL1       -0.0531
      5 C           7.1962    0.9050    0.0000 C.3     1  UNL1       -0.0531
      6 C           8.9282    0.9050    0.0000 C.3     1  UNL1       -0.0530
      7 C           6.3301    0.4050    0.0000 C.3     1  UNL1       -0.0531
      8 C           9.7942    0.4050    0.0000 C.3     1  UNL1       -0.0507
      9 C           5.4641    0.9050    0.0000 C.3     1  UNL1       -0.0531
     10 C          10.6603    0.9050    0.0000 C.3     1  UNL1       -0.0263
     11 C           4.5981    0.4050    0.0000 C.3     1  UNL1       -0.0531
     12 C          11.5263    0.4050    0.0000 C.3     1  UNL1        0.0653
     13 C           3.7320    0.9050    0.0000 C.3     1  UNL1       -0.0533
     14 C          12.3923    0.9050    0.0000 C.3     1  UNL1        0.0708
     15 C           2.8660    0.4050    0.0000 C.3     1  UNL1       -0.0559
     16 C           2.0000    0.9050    0.0000 C.3     1  UNL1       -0.0653
     17 C          13.2583    0.4050    0.0000 C.2     1  UNL1        0.3093
     18 C          14.9904    0.4050    0.0000 C.3     1  UNL1        0.0817
     19 H           7.6636   -0.0699    0.0000 H       1  UNL1        0.0265
     20 H           8.4607   -0.0699    0.0000 H       1  UNL1        0.0265
     21 H           7.5947    1.3800    0.0000 H       1  UNL1        0.0265
     22 H           6.7976    1.3800    0.0000 H       1  UNL1        0.0265
     23 H           9.3267    1.3800    0.0000 H       1  UNL1        0.0265
     24 H           8.5297    1.3800    0.0000 H       1  UNL1        0.0265
     25 H           5.9316   -0.0699    0.0000 H       1  UNL1        0.0265
     26 H           6.7287   -0.0699    0.0000 H       1  UNL1        0.0265
     27 H           9.3957   -0.0699    0.0000 H       1  UNL1        0.0266
     28 H          10.1928   -0.0699    0.0000 H       1  UNL1        0.0266
     29 H           5.8626    1.3800    0.0000 H       1  UNL1        0.0265
     30 H           5.0656    1.3800    0.0000 H       1  UNL1        0.0265
     31 H          11.0588    1.3800    0.0000 H       1  UNL1        0.0290
     32 H          10.2617    1.3800    0.0000 H       1  UNL1        0.0290
     33 H           4.1996   -0.0699    0.0000 H       1  UNL1        0.0265
     34 H           4.9966   -0.0699    0.0000 H       1  UNL1        0.0265
     35 H          10.9893    0.0950    0.0000 H       1  UNL1        0.0598
     36 H           4.1306    1.3800    0.0000 H       1  UNL1        0.0265
     37 H           3.3335    1.3800    0.0000 H       1  UNL1        0.0265
     38 H          12.7908    1.3800    0.0000 H       1  UNL1        0.0403
     39 H          11.9938    1.3800    0.0000 H       1  UNL1        0.0403
     40 H           2.4675   -0.0699    0.0000 H       1  UNL1        0.0263
     41 H           3.2646   -0.0699    0.0000 H       1  UNL1        0.0263
     42 H           2.3100    1.4419    0.0000 H       1  UNL1        0.0230
     43 H           1.4631    1.2150    0.0000 H       1  UNL1        0.0230
     44 H           1.6900    0.3681    0.0000 H       1  UNL1        0.0230
     45 H          10.9893   -0.9050    0.0000 H       1  UNL1        0.2098
     46 H          14.6804   -0.1319    0.0000 H       1  UNL1        0.0661
     47 H          15.5273    0.0950    0.0000 H       1  UNL1        0.0661
     48 H          15.3004    0.9419    0.0000 H       1  UNL1        0.0661
@<TRIPOS>BOND
     1     1    12    1
     2     1    45    1
     3     2    17    1
     4     2    18    1
     5     3    17    2
     6     4     5    1
     7     4     6    1
     8     4    19    1
     9     4    20    1
    10     5     7    1
    11     5    21    1
    12     5    22    1
    13     6     8    1
    14     6    23    1
    15     6    24    1
    16     7     9    1
    17     7    25    1
    18     7    26    1
    19     8    10    1
    20     8    27    1
    21     8    28    1
    22     9    11    1
    23     9    29    1
    24     9    30    1
    25    10    12    1
    26    10    31    1
    27    10    32    1
    28    11    13    1
    29    11    33    1
    30    11    34    1
    31    12    14    1
    32    12    35    1
    33    13    15    1
    34    13    36    1
    35    13    37    1
    36    14    17    1
    37    14    38    1
    38    14    39    1
    39    15    16    1
    40    15    40    1
    41    15    41    1
    42    16    42    1
    43    16    43    1
    44    16    44    1
    45    18    46    1
    46    18    47    1
    47    18    48    1
