@<TRIPOS>MOLECULE
IMPHY012489
 41 43 0 0 0
SMALL
GASTEIGER

@<TRIPOS>ATOM
      1 O           5.1924   -0.8255    0.0000 O.3     1  UNL1       -0.4562
      2 O           3.5451   -1.3607    0.0000 O.2     1  UNL1       -0.2450
      3 O           2.9782    3.1867    0.0000 O.3     1  UNL1       -0.4951
      4 N           6.4524   -3.0856    0.0000 N.3     1  UNL1       -0.2955
      5 C           6.4524   -2.0856    0.0000 C.3     1  UNL1        0.0500
      6 C           7.3987   -1.7808    0.0000 C.3     1  UNL1       -0.0237
      7 C           5.5014   -1.7765    0.0000 C.3     1  UNL1        0.1202
      8 C           7.9823   -2.5856    0.0000 C.3     1  UNL1       -0.0361
      9 C           7.3987   -3.3903    0.0000 C.3     1  UNL1       -0.0004
     10 C           5.5014   -3.3946    0.0000 C.3     1  UNL1        0.0027
     11 C           4.9136   -2.5856    0.0000 C.3     1  UNL1       -0.0013
     12 C           7.7093   -0.8303    0.0000 C.3     1  UNL1       -0.0608
     13 C           4.2142   -0.6176    0.0000 C.2     1  UNL1        0.3395
     14 C           3.9052    0.3335    0.0000 C.ar    1  UNL1        0.0592
     15 C           2.9270    0.5414    0.0000 C.ar    1  UNL1       -0.0443
     16 C           4.5743    1.0766    0.0000 C.ar    1  UNL1       -0.0443
     17 C           2.6180    1.4925    0.0000 C.ar    1  UNL1       -0.0192
     18 C           4.2653    2.0277    0.0000 C.ar    1  UNL1       -0.0192
     19 C           3.2872    2.2356    0.0000 C.ar    1  UNL1        0.1201
     20 C           2.0000    3.3946    0.0000 C.3     1  UNL1        0.0788
     21 H           6.4535   -1.2356    0.0000 H       1  UNL1        0.0501
     22 H           8.0112   -1.6846    0.0000 H       1  UNL1        0.0315
     23 H           4.8890   -1.6796    0.0000 H       1  UNL1        0.0750
     24 H           8.4431   -3.0003    0.0000 H       1  UNL1        0.0281
     25 H           8.4431   -2.1708    0.0000 H       1  UNL1        0.0281
     26 H           7.1476   -3.9572    0.0000 H       1  UNL1        0.0427
     27 H           7.9360   -3.6995    0.0000 H       1  UNL1        0.0427
     28 H           4.9644   -3.7046    0.0000 H       1  UNL1        0.0428
     29 H           5.7536   -3.9610    0.0000 H       1  UNL1        0.0428
     30 H           4.4528   -2.1707    0.0000 H       1  UNL1        0.0314
     31 H           4.4528   -3.0004    0.0000 H       1  UNL1        0.0314
     32 H           8.2986   -1.0229    0.0000 H       1  UNL1        0.0233
     33 H           7.9019   -0.2410    0.0000 H       1  UNL1        0.0233
     34 H           7.1200   -0.6377    0.0000 H       1  UNL1        0.0233
     35 H           2.5122    0.0807    0.0000 H       1  UNL1        0.0627
     36 H           5.1808    0.9477    0.0000 H       1  UNL1        0.0627
     37 H           2.0116    1.6214    0.0000 H       1  UNL1        0.0654
     38 H           4.6802    2.4884    0.0000 H       1  UNL1        0.0654
     39 H           2.1289    4.0010    0.0000 H       1  UNL1        0.0660
     40 H           1.3936    3.5235    0.0000 H       1  UNL1        0.0660
     41 H           1.8711    2.7881    0.0000 H       1  UNL1        0.0660
@<TRIPOS>BOND
     1     7     1    1
     2     1    13    1
     3     2    13    2
     4     3    19    1
     5     3    20    1
     6     4     5    1
     7     4     9    1
     8     4    10    1
     9     5     6    1
    10     5     7    1
    11     5    21    1
    12     6     8    1
    13     6    12    1
    14     6    22    1
    15     7    11    1
    16     7    23    1
    17     8     9    1
    18     8    24    1
    19     8    25    1
    20     9    26    1
    21     9    27    1
    22    10    11    1
    23    10    28    1
    24    10    29    1
    25    11    30    1
    26    11    31    1
    27    12    32    1
    28    12    33    1
    29    12    34    1
    30    13    14    1
    31    14    15   ar
    32    14    16   ar
    33    15    17   ar
    34    15    35    1
    35    16    18   ar
    36    16    36    1
    37    17    19   ar
    38    17    37    1
    39    18    19   ar
    40    18    38    1
    41    20    39    1
    42    20    40    1
    43    20    41    1
