@<TRIPOS>MOLECULE
IMPHY008781
 159 158 0 0 0
SMALL
GASTEIGER

@<TRIPOS>ATOM
      1 O           2.5369    6.4400    0.0000 O.3     1  UNL1       -0.3910
      2 C          18.1254   -2.5600    0.0000 C.3     1  UNL1       -0.0286
      3 C          15.5273   -1.0600    0.0000 C.3     1  UNL1       -0.0286
      4 C          20.7235   -4.0600    0.0000 C.3     1  UNL1       -0.0286
      5 C          18.9914   -3.0600    0.0000 C.3     1  UNL1       -0.0308
      6 C          23.3215   -5.5600    0.0000 C.3     1  UNL1       -0.0286
      7 C          12.9292    0.4400    0.0000 C.3     1  UNL1       -0.0286
      8 C          16.3933   -1.5600    0.0000 C.3     1  UNL1       -0.0308
      9 C          21.5895   -4.5600    0.0000 C.3     1  UNL1       -0.0308
     10 C          13.7953   -0.0600    0.0000 C.3     1  UNL1       -0.0308
     11 C          24.1876   -6.0600    0.0000 C.3     1  UNL1       -0.0308
     12 C          17.2594   -3.0600    0.0000 C.2     1  UNL1       -0.0762
     13 C          20.7235   -3.0600    0.0000 C.2     1  UNL1       -0.0762
     14 C          15.5273   -0.0600    0.0000 C.2     1  UNL1       -0.0762
     15 C          26.7856   -5.5600    0.0000 C.3     1  UNL1       -0.0286
     16 C          22.4555   -6.0600    0.0000 C.2     1  UNL1       -0.0762
     17 C          10.3312    1.9400    0.0000 C.3     1  UNL1       -0.0286
     18 C          11.1972    1.4400    0.0000 C.3     1  UNL1       -0.0308
     19 C          12.0632   -0.0600    0.0000 C.2     1  UNL1       -0.0762
     20 C          25.9196   -6.0600    0.0000 C.2     1  UNL1       -0.0762
     21 C          27.6517   -6.0600    0.0000 C.3     1  UNL1       -0.0308
     22 C          16.3933   -2.5600    0.0000 C.2     1  UNL1       -0.0847
     23 C          19.8574   -2.5600    0.0000 C.2     1  UNL1       -0.0847
     24 C          14.6613    0.4400    0.0000 C.2     1  UNL1       -0.0847
     25 C          21.5895   -5.5600    0.0000 C.2     1  UNL1       -0.0847
     26 C          10.3312    2.9400    0.0000 C.2     1  UNL1       -0.0762
     27 C          25.0536   -5.5600    0.0000 C.2     1  UNL1       -0.0847
     28 C          11.1972    0.4400    0.0000 C.2     1  UNL1       -0.0847
     29 C          30.2497   -5.5600    0.0000 C.3     1  UNL1       -0.0286
     30 C           8.5991    2.9400    0.0000 C.3     1  UNL1       -0.0308
     31 C          29.3837   -6.0600    0.0000 C.2     1  UNL1       -0.0762
     32 C           7.7331    3.4400    0.0000 C.3     1  UNL1       -0.0286
     33 C          28.5177   -5.5600    0.0000 C.2     1  UNL1       -0.0847
     34 C          31.1158   -6.0600    0.0000 C.3     1  UNL1       -0.0308
     35 C           9.4651    3.4400    0.0000 C.2     1  UNL1       -0.0847
     36 C           6.8671    2.9400    0.0000 C.2     1  UNL1       -0.0762
     37 C          17.2594   -4.0600    0.0000 C.3     1  UNL1       -0.0438
     38 C          21.5895   -2.5600    0.0000 C.3     1  UNL1       -0.0438
     39 C          16.3933    0.4400    0.0000 C.3     1  UNL1       -0.0438
     40 C          22.4555   -7.0600    0.0000 C.3     1  UNL1       -0.0438
     41 C          12.0632   -1.0600    0.0000 C.3     1  UNL1       -0.0438
     42 C          25.9196   -7.0600    0.0000 C.3     1  UNL1       -0.0438
     43 C          31.9818   -5.5600    0.0000 C.2     1  UNL1       -0.0847
     44 C          11.1972    3.4400    0.0000 C.3     1  UNL1       -0.0438
     45 C          32.8478   -6.0600    0.0000 C.2     1  UNL1       -0.0762
     46 C          33.7139   -5.5600    0.0000 C.3     1  UNL1       -0.0286
     47 C           6.0010    4.4400    0.0000 C.3     1  UNL1       -0.0308
     48 C           6.0010    3.4400    0.0000 C.2     1  UNL1       -0.0847
     49 C          29.3837   -7.0600    0.0000 C.3     1  UNL1       -0.0438
     50 C           5.1350    4.9400    0.0000 C.3     1  UNL1       -0.0285
     51 C          34.5799   -6.0600    0.0000 C.3     1  UNL1       -0.0308
     52 C           6.8671    1.9400    0.0000 C.3     1  UNL1       -0.0438
     53 C          32.8478   -7.0600    0.0000 C.3     1  UNL1       -0.0438
     54 C           5.1350    5.9400    0.0000 C.2     1  UNL1       -0.0741
     55 C          35.4459   -5.5600    0.0000 C.2     1  UNL1       -0.0850
     56 C           6.0010    6.4400    0.0000 C.3     1  UNL1       -0.0437
     57 C           4.2690    6.4400    0.0000 C.2     1  UNL1       -0.0600
     58 C          36.3119   -6.0600    0.0000 C.2     1  UNL1       -0.0796
     59 C           3.4030    5.9400    0.0000 C.3     1  UNL1        0.0626
     60 C          37.1780   -5.5600    0.0000 C.3     1  UNL1       -0.0440
     61 C          36.3119   -7.0600    0.0000 C.3     1  UNL1       -0.0440
     62 H          18.5239   -2.0850    0.0000 H       1  UNL1        0.0313
     63 H          17.7269   -2.0850    0.0000 H       1  UNL1        0.0313
     64 H          14.9167   -0.9523    0.0000 H       1  UNL1        0.0313
     65 H          15.3153   -1.6426    0.0000 H       1  UNL1        0.0313
     66 H          20.1129   -3.9523    0.0000 H       1  UNL1        0.0313
     67 H          20.5114   -4.6426    0.0000 H       1  UNL1        0.0313
     68 H          23.7201   -5.0850    0.0000 H       1  UNL1        0.0313
     69 H          22.9230   -5.0850    0.0000 H       1  UNL1        0.0313
     70 H          13.3278    0.9149    0.0000 H       1  UNL1        0.0313
     71 H          12.5307    0.9149    0.0000 H       1  UNL1        0.0313
     72 H          18.5929   -3.5350    0.0000 H       1  UNL1        0.0310
     73 H          19.3899   -3.5350    0.0000 H       1  UNL1        0.0310
     74 H          17.0039   -1.6677    0.0000 H       1  UNL1        0.0310
     75 H          16.6054   -0.9774    0.0000 H       1  UNL1        0.0310
     76 H          22.2001   -4.6677    0.0000 H       1  UNL1        0.0310
     77 H          21.8015   -3.9774    0.0000 H       1  UNL1        0.0310
     78 H          13.3967   -0.5349    0.0000 H       1  UNL1        0.0310
     79 H          14.1938   -0.5349    0.0000 H       1  UNL1        0.0310
     80 H          23.7890   -6.5350    0.0000 H       1  UNL1        0.0310
     81 H          24.5861   -6.5350    0.0000 H       1  UNL1        0.0310
     82 H          27.1842   -5.0850    0.0000 H       1  UNL1        0.0313
     83 H          26.3871   -5.0850    0.0000 H       1  UNL1        0.0313
     84 H           9.7206    2.0477    0.0000 H       1  UNL1        0.0313
     85 H          10.1191    1.3574    0.0000 H       1  UNL1        0.0313
     86 H          11.8078    1.3323    0.0000 H       1  UNL1        0.0310
     87 H          11.4092    2.0226    0.0000 H       1  UNL1        0.0310
     88 H          27.2531   -6.5350    0.0000 H       1  UNL1        0.0310
     89 H          28.0502   -6.5350    0.0000 H       1  UNL1        0.0310
     90 H          15.8564   -2.8700    0.0000 H       1  UNL1        0.0572
     91 H          19.8574   -1.9400    0.0000 H       1  UNL1        0.0572
     92 H          14.6613    1.0600    0.0000 H       1  UNL1        0.0572
     93 H          21.0526   -5.8700    0.0000 H       1  UNL1        0.0572
     94 H          25.0536   -4.9400    0.0000 H       1  UNL1        0.0572
     95 H          10.6603    0.1300    0.0000 H       1  UNL1        0.0572
     96 H          30.6483   -5.0850    0.0000 H       1  UNL1        0.0313
     97 H          29.8512   -5.0850    0.0000 H       1  UNL1        0.0313
     98 H           8.2006    2.4651    0.0000 H       1  UNL1        0.0310
     99 H           8.9976    2.4651    0.0000 H       1  UNL1        0.0310
    100 H           8.1316    3.9150    0.0000 H       1  UNL1        0.0313
    101 H           7.3346    3.9150    0.0000 H       1  UNL1        0.0313
    102 H          28.5177   -4.9400    0.0000 H       1  UNL1        0.0572
    103 H          30.7172   -6.5350    0.0000 H       1  UNL1        0.0310
    104 H          31.5143   -6.5350    0.0000 H       1  UNL1        0.0310
    105 H           9.4651    4.0600    0.0000 H       1  UNL1        0.0572
    106 H          16.6394   -4.0600    0.0000 H       1  UNL1        0.0274
    107 H          17.2594   -4.6800    0.0000 H       1  UNL1        0.0274
    108 H          17.8794   -4.0600    0.0000 H       1  UNL1        0.0274
    109 H          21.8995   -3.0969    0.0000 H       1  UNL1        0.0274
    110 H          22.1264   -2.2500    0.0000 H       1  UNL1        0.0274
    111 H          21.2795   -2.0231    0.0000 H       1  UNL1        0.0274
    112 H          16.7033   -0.0969    0.0000 H       1  UNL1        0.0274
    113 H          16.9303    0.7500    0.0000 H       1  UNL1        0.0274
    114 H          16.0833    0.9769    0.0000 H       1  UNL1        0.0274
    115 H          21.8355   -7.0600    0.0000 H       1  UNL1        0.0274
    116 H          22.4555   -7.6800    0.0000 H       1  UNL1        0.0274
    117 H          23.0755   -7.0600    0.0000 H       1  UNL1        0.0274
    118 H          11.4432   -1.0600    0.0000 H       1  UNL1        0.0274
    119 H          12.0632   -1.6800    0.0000 H       1  UNL1        0.0274
    120 H          12.6832   -1.0600    0.0000 H       1  UNL1        0.0274
    121 H          25.2996   -7.0600    0.0000 H       1  UNL1        0.0274
    122 H          25.9196   -7.6800    0.0000 H       1  UNL1        0.0274
    123 H          26.5396   -7.0600    0.0000 H       1  UNL1        0.0274
    124 H          31.9818   -4.9400    0.0000 H       1  UNL1        0.0572
    125 H          11.5072    2.9031    0.0000 H       1  UNL1        0.0274
    126 H          11.7341    3.7500    0.0000 H       1  UNL1        0.0274
    127 H          10.8872    3.9769    0.0000 H       1  UNL1        0.0274
    128 H          34.1124   -5.0850    0.0000 H       1  UNL1        0.0313
    129 H          33.3153   -5.0850    0.0000 H       1  UNL1        0.0313
    130 H           6.6116    4.3323    0.0000 H       1  UNL1        0.0310
    131 H           6.2131    5.0226    0.0000 H       1  UNL1        0.0310
    132 H           5.4641    3.1300    0.0000 H       1  UNL1        0.0572
    133 H          28.7637   -7.0600    0.0000 H       1  UNL1        0.0274
    134 H          29.3837   -7.6800    0.0000 H       1  UNL1        0.0274
    135 H          30.0037   -7.0600    0.0000 H       1  UNL1        0.0274
    136 H           4.5244    5.0477    0.0000 H       1  UNL1        0.0313
    137 H           4.9230    4.3574    0.0000 H       1  UNL1        0.0313
    138 H          34.1813   -6.5350    0.0000 H       1  UNL1        0.0310
    139 H          34.9784   -6.5350    0.0000 H       1  UNL1        0.0310
    140 H           6.2471    1.9400    0.0000 H       1  UNL1        0.0274
    141 H           6.8671    1.3200    0.0000 H       1  UNL1        0.0274
    142 H           7.4871    1.9400    0.0000 H       1  UNL1        0.0274
    143 H          32.2278   -7.0600    0.0000 H       1  UNL1        0.0274
    144 H          32.8478   -7.6800    0.0000 H       1  UNL1        0.0274
    145 H          33.4678   -7.0600    0.0000 H       1  UNL1        0.0274
    146 H          35.4459   -4.9400    0.0000 H       1  UNL1        0.0572
    147 H           6.3110    5.9031    0.0000 H       1  UNL1        0.0274
    148 H           6.5380    6.7500    0.0000 H       1  UNL1        0.0274
    149 H           5.6910    6.9769    0.0000 H       1  UNL1        0.0274
    150 H           4.2690    7.0600    0.0000 H       1  UNL1        0.0594
    151 H           3.0044    5.4650    0.0000 H       1  UNL1        0.0601
    152 H           3.8015    5.4650    0.0000 H       1  UNL1        0.0601
    153 H          37.4880   -6.0969    0.0000 H       1  UNL1        0.0274
    154 H          37.7149   -5.2500    0.0000 H       1  UNL1        0.0274
    155 H          36.8680   -5.0231    0.0000 H       1  UNL1        0.0274
    156 H          35.6919   -7.0600    0.0000 H       1  UNL1        0.0274
    157 H          36.3119   -7.6800    0.0000 H       1  UNL1        0.0274
    158 H          36.9319   -7.0600    0.0000 H       1  UNL1        0.0274
    159 H           2.0000    6.1300    0.0000 H       1  UNL1        0.2098
@<TRIPOS>BOND
     1     1    59    1
     2     1   159    1
     3     2     5    1
     4     2    12    1
     5     2    62    1
     6     2    63    1
     7     3     8    1
     8     3    14    1
     9     3    64    1
    10     3    65    1
    11     4     9    1
    12     4    13    1
    13     4    66    1
    14     4    67    1
    15     5    23    1
    16     5    72    1
    17     5    73    1
    18     6    11    1
    19     6    16    1
    20     6    68    1
    21     6    69    1
    22     7    10    1
    23     7    19    1
    24     7    70    1
    25     7    71    1
    26     8    22    1
    27     8    74    1
    28     8    75    1
    29     9    25    1
    30     9    76    1
    31     9    77    1
    32    10    24    1
    33    10    78    1
    34    10    79    1
    35    11    27    1
    36    11    80    1
    37    11    81    1
    38    12    22    2
    39    12    37    1
    40    13    23    2
    41    13    38    1
    42    14    24    2
    43    14    39    1
    44    15    20    1
    45    15    21    1
    46    15    82    1
    47    15    83    1
    48    16    25    2
    49    16    40    1
    50    17    18    1
    51    17    26    1
    52    17    84    1
    53    17    85    1
    54    18    28    1
    55    18    86    1
    56    18    87    1
    57    19    28    2
    58    19    41    1
    59    20    27    2
    60    20    42    1
    61    21    33    1
    62    21    88    1
    63    21    89    1
    64    22    90    1
    65    23    91    1
    66    24    92    1
    67    25    93    1
    68    26    35    2
    69    26    44    1
    70    27    94    1
    71    28    95    1
    72    29    31    1
    73    29    34    1
    74    29    96    1
    75    29    97    1
    76    30    32    1
    77    30    35    1
    78    30    98    1
    79    30    99    1
    80    31    33    2
    81    31    49    1
    82    32    36    1
    83    32   100    1
    84    32   101    1
    85    33   102    1
    86    34    43    1
    87    34   103    1
    88    34   104    1
    89    35   105    1
    90    36    48    2
    91    36    52    1
    92    37   106    1
    93    37   107    1
    94    37   108    1
    95    38   109    1
    96    38   110    1
    97    38   111    1
    98    39   112    1
    99    39   113    1
   100    39   114    1
   101    40   115    1
   102    40   116    1
   103    40   117    1
   104    41   118    1
   105    41   119    1
   106    41   120    1
   107    42   121    1
   108    42   122    1
   109    42   123    1
   110    43    45    2
   111    43   124    1
   112    44   125    1
   113    44   126    1
   114    44   127    1
   115    45    46    1
   116    45    53    1
   117    46    51    1
   118    46   128    1
   119    46   129    1
   120    47    48    1
   121    47    50    1
   122    47   130    1
   123    47   131    1
   124    48   132    1
   125    49   133    1
   126    49   134    1
   127    49   135    1
   128    50    54    1
   129    50   136    1
   130    50   137    1
   131    51    55    1
   132    51   138    1
   133    51   139    1
   134    52   140    1
   135    52   141    1
   136    52   142    1
   137    53   143    1
   138    53   144    1
   139    53   145    1
   140    54    56    1
   141    54    57    2
   142    55    58    2
   143    55   146    1
   144    56   147    1
   145    56   148    1
   146    56   149    1
   147    57    59    1
   148    57   150    1
   149    58    60    1
   150    58    61    1
   151    59   151    1
   152    59   152    1
   153    60   153    1
   154    60   154    1
   155    60   155    1
   156    61   156    1
   157    61   157    1
   158    61   158    1
