@<TRIPOS>MOLECULE
IMPHY005731
 117 123 0 0 0
SMALL
GASTEIGER

@<TRIPOS>ATOM
      1 O           6.8671   -3.8970    0.0000 O.3     1  UNL1       -0.3449
      2 O           5.1720    0.2932    0.0000 O.2     1  UNL1       -0.2923
      3 O           5.1350   -3.8970    0.0000 O.3     1  UNL1       -0.3315
      4 O           5.8747    6.6749    0.0000 O.3     1  UNL1       -0.4802
      5 O           4.3882    5.7858    0.0000 O.2     1  UNL1       -0.2504
      6 O           6.8671   -5.8970    0.0000 O.3     1  UNL1       -0.3378
      7 O           5.1350   -6.8970    0.0000 O.3     1  UNL1       -0.3864
      8 O           3.4030   -5.8970    0.0000 O.3     1  UNL1       -0.3860
      9 O           7.8376   -4.4025    0.0000 O.3     1  UNL1       -0.3457
     10 O           2.5369   -4.3970    0.0000 O.3     1  UNL1       -0.4788
     11 O           3.4030   -2.8970    0.0000 O.2     1  UNL1       -0.2480
     12 O           8.8546   -6.7819    0.0000 O.3     1  UNL1       -0.3837
     13 O          10.0589   -5.7297    0.0000 O.3     1  UNL1       -0.3812
     14 O          10.1818   -3.5606    0.0000 O.3     1  UNL1       -0.3920
     15 C           7.7681    0.8032    0.0000 C.3     1  UNL1       -0.0127
     16 C           6.8920   -0.7417    0.0000 C.3     1  UNL1       -0.0182
     17 C           6.9040    0.2999    0.0000 C.3     1  UNL1        0.0333
     18 C           7.7643    1.8032    0.0000 C.3     1  UNL1       -0.0043
     19 C           7.7920   -1.2660    0.0000 C.3     1  UNL1       -0.0274
     20 C           8.6801    0.2999    0.0000 C.3     1  UNL1       -0.0459
     21 C           7.8046   -2.3509    0.0000 C.3     1  UNL1       -0.0052
     22 C           8.6921   -0.7417    0.0000 C.3     1  UNL1       -0.0486
     23 C           6.8963    2.2999    0.0000 C.2     1  UNL1       -0.0562
     24 C           6.8762    3.3413    0.0000 C.3     1  UNL1       -0.0126
     25 C           7.7722    3.8725    0.0000 C.3     1  UNL1       -0.0254
     26 C           8.6723    2.3136    0.0000 C.3     1  UNL1       -0.0429
     27 C           5.9421   -1.2660    0.0000 C.3     1  UNL1       -0.0443
     28 C           8.6763    3.3552    0.0000 C.3     1  UNL1       -0.0463
     29 C           6.8671   -2.8970    0.0000 C.3     1  UNL1        0.0672
     30 C           6.0361    0.7966    0.0000 C.2     1  UNL1        0.1602
     31 C           8.7522    0.9807    0.0000 C.3     1  UNL1       -0.0581
     32 C           5.9295   -2.3509    0.0000 C.3     1  UNL1       -0.0255
     33 C           6.0279   -0.2383    0.0000 C.3     1  UNL1       -0.0586
     34 C           8.7497    1.6334    0.0000 C.3     1  UNL1       -0.0553
     35 C           6.0322    1.7965    0.0000 C.2     1  UNL1       -0.0188
     36 C           5.9223    3.8583    0.0000 C.3     1  UNL1       -0.0304
     37 C           7.7764    4.9575    0.0000 C.3     1  UNL1       -0.0461
     38 C           5.9014    4.9431    0.0000 C.3     1  UNL1        0.0654
     39 C           8.8046   -2.3432    0.0000 C.3     1  UNL1       -0.0572
     40 C           8.3113   -3.2130    0.0000 C.3     1  UNL1       -0.0572
     41 C           6.8347    5.4964    0.0000 C.3     1  UNL1       -0.0370
     42 C           8.6324    4.3825    0.0000 C.3     1  UNL1       -0.0590
     43 C           4.9015    4.9276    0.0000 C.3     1  UNL1       -0.0494
     44 C           5.3881    5.8013    0.0000 C.2     1  UNL1        0.3107
     45 C           6.0010   -4.3970    0.0000 C.3     1  UNL1        0.1892
     46 C           6.0010   -5.3970    0.0000 C.3     1  UNL1        0.1407
     47 C           5.1350   -5.8970    0.0000 C.3     1  UNL1        0.1149
     48 C           4.2690   -4.3970    0.0000 C.3     1  UNL1        0.1859
     49 C           4.2690   -5.3970    0.0000 C.3     1  UNL1        0.1202
     50 C           7.7331   -5.3970    0.0000 C.3     1  UNL1        0.1885
     51 C           3.4030   -3.8970    0.0000 C.2     1  UNL1        0.3367
     52 C           8.6466   -5.8037    0.0000 C.3     1  UNL1        0.1387
     53 C           9.3158   -5.0606    0.0000 C.3     1  UNL1        0.1425
     54 C           8.8158   -4.1946    0.0000 C.3     1  UNL1        0.0843
     55 C          10.1818   -4.5606    0.0000 C.3     1  UNL1        0.0778
     56 H           7.4398   -0.0122    0.0000 H       1  UNL1        0.0392
     57 H           8.3314   -1.5718    0.0000 H       1  UNL1        0.0312
     58 H           9.2921    0.2009    0.0000 H       1  UNL1        0.0271
     59 H           8.8824    0.8860    0.0000 H       1  UNL1        0.0271
     60 H           8.9079   -1.3229    0.0000 H       1  UNL1        0.0268
     61 H           9.3017   -0.6285    0.0000 H       1  UNL1        0.0268
     62 H           6.3466    3.0190    0.0000 H       1  UNL1        0.0351
     63 H           8.8791    1.7291    0.0000 H       1  UNL1        0.0274
     64 H           9.2836    2.4173    0.0000 H       1  UNL1        0.0274
     65 H           5.7398   -0.6799    0.0000 H       1  UNL1        0.0272
     66 H           5.3300   -1.3650    0.0000 H       1  UNL1        0.0272
     67 H           9.2868    3.2468    0.0000 H       1  UNL1        0.0271
     68 H           8.8876    3.9381    0.0000 H       1  UNL1        0.0271
     69 H           7.4046   -3.2060    0.0000 H       1  UNL1        0.0602
     70 H           8.8623    0.3705    0.0000 H       1  UNL1        0.0236
     71 H           9.3624    1.0907    0.0000 H       1  UNL1        0.0236
     72 H           8.6422    1.5908    0.0000 H       1  UNL1        0.0236
     73 H           5.3199   -2.2377    0.0000 H       1  UNL1        0.0290
     74 H           5.7137   -2.9321    0.0000 H       1  UNL1        0.0290
     75 H           6.3400    0.2974    0.0000 H       1  UNL1        0.0235
     76 H           5.4922    0.0737    0.0000 H       1  UNL1        0.0235
     77 H           5.7158   -0.7741    0.0000 H       1  UNL1        0.0235
     78 H           8.6444    1.0224    0.0000 H       1  UNL1        0.0238
     79 H           9.3607    1.5281    0.0000 H       1  UNL1        0.0238
     80 H           8.8550    2.2444    0.0000 H       1  UNL1        0.0238
     81 H           5.4941    2.1045    0.0000 H       1  UNL1        0.0652
     82 H           5.3095    3.9526    0.0000 H       1  UNL1        0.0282
     83 H           5.7246    3.2706    0.0000 H       1  UNL1        0.0282
     84 H           8.3869    4.8491    0.0000 H       1  UNL1        0.0271
     85 H           7.9877    5.5404    0.0000 H       1  UNL1        0.0271
     86 H           7.7767   -3.5272    0.0000 H       1  UNL1        0.0236
     87 H           8.6254   -3.7476    0.0000 H       1  UNL1        0.0236
     88 H           8.8458   -2.8989    0.0000 H       1  UNL1        0.0236
     89 H           8.8094   -2.9632    0.0000 H       1  UNL1        0.0236
     90 H           9.4246   -2.3384    0.0000 H       1  UNL1        0.0236
     91 H           8.7998   -1.7232    0.0000 H       1  UNL1        0.0236
     92 H           7.2302    5.9739    0.0000 H       1  UNL1        0.0276
     93 H           6.4319    5.9677    0.0000 H       1  UNL1        0.0276
     94 H           8.9486    3.8492    0.0000 H       1  UNL1        0.0235
     95 H           9.1657    4.6987    0.0000 H       1  UNL1        0.0235
     96 H           8.3162    4.9158    0.0000 H       1  UNL1        0.0235
     97 H           4.8920    5.5476    0.0000 H       1  UNL1        0.0240
     98 H           4.2816    4.9181    0.0000 H       1  UNL1        0.0240
     99 H           4.9111    4.3077    0.0000 H       1  UNL1        0.0240
    100 H           6.5380   -4.7070    0.0000 H       1  UNL1        0.0938
    101 H           6.0010   -6.0170    0.0000 H       1  UNL1        0.0675
    102 H           5.5565    7.2070    0.0000 H       1  UNL1        0.2951
    103 H           4.5981   -6.2070    0.0000 H       1  UNL1        0.0648
    104 H           4.2690   -3.7770    0.0000 H       1  UNL1        0.0741
    105 H           3.7320   -5.0870    0.0000 H       1  UNL1        0.0652
    106 H           7.7655   -6.0162    0.0000 H       1  UNL1        0.0938
    107 H           4.5981   -7.2070    0.0000 H       1  UNL1        0.2100
    108 H           3.4030   -6.5170    0.0000 H       1  UNL1        0.2100
    109 H           9.2455   -5.9642    0.0000 H       1  UNL1        0.0675
    110 H           9.3822   -3.9424    0.0000 H       1  UNL1        0.0591
    111 H           8.6242   -3.6049    0.0000 H       1  UNL1        0.0591
    112 H           2.0000   -4.0870    0.0000 H       1  UNL1        0.2951
    113 H          10.3938   -5.1432    0.0000 H       1  UNL1        0.0587
    114 H          10.7924   -4.4529    0.0000 H       1  UNL1        0.0587
    115 H           9.4442   -6.9735    0.0000 H       1  UNL1        0.2101
    116 H          10.6486   -5.5381    0.0000 H       1  UNL1        0.2105
    117 H          10.7187   -3.2506    0.0000 H       1  UNL1        0.2095
@<TRIPOS>BOND
     1     1    29    1
     2     1    45    1
     3     2    30    2
     4     3    45    1
     5     3    48    1
     6     4    44    1
     7     4   102    1
     8     5    44    2
     9     6    46    1
    10     6    50    1
    11     7    47    1
    12     7   107    1
    13     8    49    1
    14     8   108    1
    15     9    50    1
    16     9    54    1
    17    10    51    1
    18    10   112    1
    19    11    51    2
    20    12    52    1
    21    12   115    1
    22    13    53    1
    23    13   116    1
    24    14    55    1
    25    14   117    1
    26    15    17    1
    27    15    18    1
    28    15    20    1
    29    15    31    1
    30    16    17    1
    31    16    19    1
    32    16    27    1
    33    16    33    1
    34    17    30    1
    35    17    56    1
    36    18    23    1
    37    18    26    1
    38    18    34    1
    39    19    21    1
    40    19    22    1
    41    19    57    1
    42    20    22    1
    43    20    58    1
    44    20    59    1
    45    21    29    1
    46    21    39    1
    47    21    40    1
    48    22    60    1
    49    22    61    1
    50    23    24    1
    51    23    35    2
    52    24    25    1
    53    24    36    1
    54    24    62    1
    55    25    28    1
    56    25    37    1
    57    25    42    1
    58    26    28    1
    59    26    63    1
    60    26    64    1
    61    27    32    1
    62    27    65    1
    63    27    66    1
    64    28    67    1
    65    28    68    1
    66    29    32    1
    67    29    69    1
    68    30    35    1
    69    31    70    1
    70    31    71    1
    71    31    72    1
    72    32    73    1
    73    32    74    1
    74    33    75    1
    75    33    76    1
    76    33    77    1
    77    34    78    1
    78    34    79    1
    79    34    80    1
    80    35    81    1
    81    36    38    1
    82    36    82    1
    83    36    83    1
    84    37    41    1
    85    37    84    1
    86    37    85    1
    87    38    41    1
    88    38    43    1
    89    38    44    1
    90    39    89    1
    91    39    90    1
    92    39    91    1
    93    40    86    1
    94    40    87    1
    95    40    88    1
    96    41    92    1
    97    41    93    1
    98    42    94    1
    99    42    95    1
   100    42    96    1
   101    43    97    1
   102    43    98    1
   103    43    99    1
   104    45    46    1
   105    45   100    1
   106    46    47    1
   107    46   101    1
   108    47    49    1
   109    47   103    1
   110    48    49    1
   111    48    51    1
   112    48   104    1
   113    49   105    1
   114    50    52    1
   115    50   106    1
   116    52    53    1
   117    52   109    1
   118    53    54    1
   119    53    55    1
   120    54   110    1
   121    54   111    1
   122    55   113    1
   123    55   114    1
