@<TRIPOS>MOLECULE
IMPHY001488
 34 37 0 0 0
SMALL
GASTEIGER

@<TRIPOS>ATOM
      1 O           5.5022   -0.7882    0.0000 O.2     1  UNL1       -0.4508
      2 O           9.0744   -0.5583    0.0000 O.2     1  UNL1       -0.4628
      3 O           3.7320    1.2706    0.0000 O.3     1  UNL1       -0.4883
      4 O           5.5138    2.2810    0.0000 O.2     1  UNL1       -0.2831
      5 C           6.3961    0.7464    0.0000 C.ar    1  UNL1        0.0685
      6 C           6.3961   -0.2536    0.0000 C.ar    1  UNL1        0.1431
      7 C           8.1282    0.7464    0.0000 C.ar    1  UNL1        0.0210
      8 C           8.1282   -0.2536    0.0000 C.ar    1  UNL1        0.1383
      9 C           7.2622    1.2464    0.0000 C.ar    1  UNL1       -0.0365
     10 C           4.5961   -0.2744    0.0000 C.ar    1  UNL1        0.1808
     11 C           7.2622   -0.7536    0.0000 C.ar    1  UNL1        0.0243
     12 C           5.5022    1.2811    0.0000 C.ar    1  UNL1        0.2346
     13 C           4.5961    0.7673    0.0000 C.ar    1  UNL1        0.2105
     14 C           3.7320   -0.7777    0.0000 C.ar    1  UNL1        0.0211
     15 C           9.0744    1.0512    0.0000 C.ar    1  UNL1       -0.0161
     16 C           9.6580    0.2464    0.0000 C.ar    1  UNL1        0.0931
     17 C           2.8641   -0.2810    0.0000 C.ar    1  UNL1       -0.0510
     18 C           3.7359   -1.7777    0.0000 C.ar    1  UNL1       -0.0510
     19 C           2.0000   -0.7844    0.0000 C.ar    1  UNL1       -0.0611
     20 C           2.8718   -2.2810    0.0000 C.ar    1  UNL1       -0.0611
     21 C           2.0038   -1.7844    0.0000 C.ar    1  UNL1       -0.0617
     22 C           3.7359    2.2706    0.0000 C.3     1  UNL1        0.0791
     23 H           7.2622    1.8664    0.0000 H       1  UNL1        0.0633
     24 H           7.2622   -1.3736    0.0000 H       1  UNL1        0.0692
     25 H           9.2670    1.6405    0.0000 H       1  UNL1        0.0655
     26 H          10.2780    0.2464    0.0000 H       1  UNL1        0.1029
     27 H           2.8617    0.3389    0.0000 H       1  UNL1        0.0625
     28 H           4.2740   -2.0856    0.0000 H       1  UNL1        0.0625
     29 H           1.4619   -0.4765    0.0000 H       1  UNL1        0.0618
     30 H           2.8742   -2.9010    0.0000 H       1  UNL1        0.0618
     31 H           1.4681   -2.0964    0.0000 H       1  UNL1        0.0618
     32 H           4.3559    2.2682    0.0000 H       1  UNL1        0.0660
     33 H           3.7383    2.8906    0.0000 H       1  UNL1        0.0660
     34 H           3.1159    2.2730    0.0000 H       1  UNL1        0.0660
@<TRIPOS>BOND
     1     1     6   ar
     2     1    10   ar
     3     2     8   ar
     4     2    16   ar
     5     3    13    1
     6     3    22    1
     7     4    12    2
     8     5     6   ar
     9     5     9   ar
    10     5    12   ar
    11     6    11   ar
    12     7     8   ar
    13     7     9   ar
    14     7    15   ar
    15     8    11   ar
    16     9    23    1
    17    10    13   ar
    18    10    14    1
    19    11    24    1
    20    12    13   ar
    21    14    17   ar
    22    14    18   ar
    23    15    16   ar
    24    15    25    1
    25    16    26    1
    26    17    19   ar
    27    17    27    1
    28    18    20   ar
    29    18    28    1
    30    19    21   ar
    31    19    29    1
    32    20    21   ar
    33    20    30    1
    34    21    31    1
    35    22    32    1
    36    22    33    1
    37    22    34    1
