@<TRIPOS>MOLECULE
IMPHY016882
 35 36 0 0 0
SMALL
GASTEIGER

@<TRIPOS>ATOM
      1 C           3.4088    1.1235    0.0000 C.3     1  UNL1       -0.0093
      2 C           2.4339    0.9010    0.0000 C.3     1  UNL1       -0.0436
      3 C           4.1906    0.5000    0.0000 C.ar    1  UNL1       -0.0341
      4 C           2.0000   -0.0000    0.0000 C.3     1  UNL1       -0.0483
      5 C           2.4339   -0.9010    0.0000 C.3     1  UNL1       -0.0276
      6 C           3.1863    2.0984    0.0000 C.3     1  UNL1       -0.0558
      7 C           4.0323    1.9053    0.0000 C.3     1  UNL1       -0.0558
      8 C           4.1906   -0.5000    0.0000 C.ar    1  UNL1       -0.0187
      9 C           3.4088   -1.1235    0.0000 C.2     1  UNL1       -0.0470
     10 C           5.0846    1.0347    0.0000 C.ar    1  UNL1       -0.0546
     11 C           5.0846   -1.0347    0.0000 C.ar    1  UNL1       -0.0538
     12 C           5.9906    0.5208    0.0000 C.ar    1  UNL1       -0.0501
     13 C           5.9906   -0.5208    0.0000 C.ar    1  UNL1       -0.0583
     14 C           3.6313   -2.0984    0.0000 C.2     1  UNL1       -0.0949
     15 C           6.8547    1.0241    0.0000 C.3     1  UNL1       -0.0397
     16 H           2.4339    1.5210    0.0000 H       1  UNL1        0.0274
     17 H           1.8294    1.0389    0.0000 H       1  UNL1        0.0274
     18 H           1.5153    0.3866    0.0000 H       1  UNL1        0.0269
     19 H           1.5153   -0.3866    0.0000 H       1  UNL1        0.0269
     20 H           1.8294   -1.0389    0.0000 H       1  UNL1        0.0313
     21 H           2.4339   -1.5210    0.0000 H       1  UNL1        0.0313
     22 H           3.7908    2.2364    0.0000 H       1  UNL1        0.0238
     23 H           3.0483    2.7029    0.0000 H       1  UNL1        0.0238
     24 H           2.5818    1.9604    0.0000 H       1  UNL1        0.0238
     25 H           4.5170    1.5188    0.0000 H       1  UNL1        0.0238
     26 H           4.4189    2.3901    0.0000 H       1  UNL1        0.0238
     27 H           3.5476    2.2919    0.0000 H       1  UNL1        0.0238
     28 H           5.0774    1.6546    0.0000 H       1  UNL1        0.0623
     29 H           5.0774   -1.6546    0.0000 H       1  UNL1        0.0624
     30 H           6.5264   -0.8329    0.0000 H       1  UNL1        0.0620
     31 H           3.1768   -2.5201    0.0000 H       1  UNL1        0.0538
     32 H           4.2238   -2.2812    0.0000 H       1  UNL1        0.0538
     33 H           7.1668    0.4884    0.0000 H       1  UNL1        0.0278
     34 H           7.3905    1.3362    0.0000 H       1  UNL1        0.0278
     35 H           6.5427    1.5599    0.0000 H       1  UNL1        0.0278
@<TRIPOS>BOND
     1     1     2    1
     2     1     3    1
     3     1     6    1
     4     1     7    1
     5     2     4    1
     6     2    16    1
     7     2    17    1
     8     3     8   ar
     9     3    10   ar
    10     4     5    1
    11     4    18    1
    12     4    19    1
    13     5     9    1
    14     5    20    1
    15     5    21    1
    16     6    22    1
    17     6    23    1
    18     6    24    1
    19     7    25    1
    20     7    26    1
    21     7    27    1
    22     8     9    1
    23     8    11   ar
    24     9    14    2
    25    10    12   ar
    26    10    28    1
    27    11    13   ar
    28    11    29    1
    29    12    13   ar
    30    12    15    1
    31    13    30    1
    32    14    31    1
    33    14    32    1
    34    15    33    1
    35    15    34    1
    36    15    35    1
