@<TRIPOS>MOLECULE
IMPHY007277
 52 54 0 0 0
SMALL
GASTEIGER

@<TRIPOS>ATOM
      1 O           4.5787    0.2349    0.0000 O.3     1  UNL1       -0.4561
      2 O           7.1188   -0.2539    0.0000 O.3     1  UNL1       -0.4581
      3 O           6.8457   -2.5396    0.0000 O.3     1  UNL1       -0.3771
      4 O           2.8660    0.2461    0.0000 O.2     1  UNL1       -0.2453
      5 O           7.9848   -1.7316    0.0000 O.2     1  UNL1       -0.2476
      6 N           5.4255    2.6790    0.0000 N.3     1  UNL1       -0.2886
      7 C           5.4255    1.7014    0.0000 C.3     1  UNL1        0.0723
      8 C           4.5787    1.2126    0.0000 C.3     1  UNL1        0.1239
      9 C           3.8842    2.1413    0.0000 C.3     1  UNL1       -0.0010
     10 C           4.4056    2.9235    0.0000 C.3     1  UNL1        0.0033
     11 C           6.2721    1.2126    0.0000 C.2     1  UNL1       -0.0148
     12 C           6.3609    2.9452    0.0000 C.3     1  UNL1        0.0182
     13 C           6.9692    2.1413    0.0000 C.2     1  UNL1       -0.0660
     14 C           6.2721    0.2349    0.0000 C.3     1  UNL1        0.1153
     15 C           6.2721   -1.7204    0.0000 C.3     1  UNL1        0.1646
     16 C           5.4255   -1.2316    0.0000 C.3     1  UNL1       -0.0003
     17 C           4.5787   -1.7204    0.0000 C.3     1  UNL1       -0.0155
     18 C           3.7320   -0.2539    0.0000 C.2     1  UNL1        0.3352
     19 C           7.1188   -1.2316    0.0000 C.2     1  UNL1        0.3397
     20 C           6.0133   -2.6864    0.0000 C.3     1  UNL1       -0.0161
     21 C           3.7320   -1.2316    0.0000 C.2     1  UNL1        0.0328
     22 C           5.4255   -0.2316    0.0000 C.3     1  UNL1       -0.0590
     23 C           5.0474   -2.9452    0.0000 C.3     1  UNL1       -0.0621
     24 C           2.8660   -1.7316    0.0000 C.2     1  UNL1       -0.0771
     25 C           2.0000   -1.2316    0.0000 C.3     1  UNL1       -0.0461
     26 H           5.4254    1.0814    0.0000 H       1  UNL1        0.0547
     27 H           3.7721    0.9443    0.0000 H       1  UNL1        0.0753
     28 H           3.4106    2.5415    0.0000 H       1  UNL1        0.0314
     29 H           3.4329    1.7162    0.0000 H       1  UNL1        0.0314
     30 H           4.6198    3.5053    0.0000 H       1  UNL1        0.0428
     31 H           3.8529    3.2045    0.0000 H       1  UNL1        0.0428
     32 H           6.8976    3.2555    0.0000 H       1  UNL1        0.0470
     33 H           6.1190    3.5161    0.0000 H       1  UNL1        0.0470
     34 H           7.5892    2.1426    0.0000 H       1  UNL1        0.0586
     35 H           5.6615    0.3426    0.0000 H       1  UNL1        0.0746
     36 H           6.0601   -0.3477    0.0000 H       1  UNL1        0.0746
     37 H           5.9624   -0.9216    0.0000 H       1  UNL1        0.0334
     38 H           4.1802   -2.1954    0.0000 H       1  UNL1        0.0319
     39 H           4.9772   -2.1954    0.0000 H       1  UNL1        0.0319
     40 H           6.0673   -3.3040    0.0000 H       1  UNL1        0.0296
     41 H           6.6309   -2.7404    0.0000 H       1  UNL1        0.0296
     42 H           6.0455   -0.2316    0.0000 H       1  UNL1        0.0234
     43 H           5.4254    0.3884    0.0000 H       1  UNL1        0.0234
     44 H           4.8055   -0.2316    0.0000 H       1  UNL1        0.0234
     45 H           7.4633   -2.4855    0.0000 H       1  UNL1        0.2109
     46 H           4.8869   -2.3463    0.0000 H       1  UNL1        0.0231
     47 H           4.4485   -3.1056    0.0000 H       1  UNL1        0.0231
     48 H           5.2078   -3.5440    0.0000 H       1  UNL1        0.0231
     49 H           2.8660   -2.3516    0.0000 H       1  UNL1        0.0574
     50 H           2.3100   -0.6947    0.0000 H       1  UNL1        0.0272
     51 H           1.4631   -0.9216    0.0000 H       1  UNL1        0.0272
     52 H           1.6900   -1.7686    0.0000 H       1  UNL1        0.0272
@<TRIPOS>BOND
     1     1     8    1
     2     1    18    1
     3     2    14    1
     4     2    19    1
     5    15     3    1
     6     3    45    1
     7     4    18    2
     8     5    19    2
     9     6     7    1
    10     6    10    1
    11     6    12    1
    12     7     8    1
    13     7    11    1
    14     7    26    1
    15     8     9    1
    16     8    27    1
    17     9    10    1
    18     9    28    1
    19     9    29    1
    20    10    30    1
    21    10    31    1
    22    11    13    2
    23    11    14    1
    24    12    13    1
    25    12    32    1
    26    12    33    1
    27    13    34    1
    28    14    35    1
    29    14    36    1
    30    15    16    1
    31    15    19    1
    32    15    20    1
    33    16    17    1
    34    16    22    1
    35    16    37    1
    36    17    21    1
    37    17    38    1
    38    17    39    1
    39    18    21    1
    40    20    23    1
    41    20    40    1
    42    20    41    1
    43    21    24    2
    44    22    42    1
    45    22    43    1
    46    22    44    1
    47    23    46    1
    48    23    47    1
    49    23    48    1
    50    24    25    1
    51    24    49    1
    52    25    50    1
    53    25    51    1
    54    25    52    1
