@<TRIPOS>MOLECULE
IMPHY004624
 17 17 0 0 0
SMALL
GASTEIGER

@<TRIPOS>ATOM
      1 O           5.3122    0.5282    0.0000 O.2     1  UNL1       -0.2911
      2 N           2.8090   -0.4197    0.0000 N.2     1  UNL1       -0.2847
      3 C           2.3090    1.1191    0.0000 C.3     1  UNL1       -0.0279
      4 C           3.3090    1.1191    0.0000 C.3     1  UNL1       -0.0058
      5 C           2.0000    0.1681    0.0000 C.3     1  UNL1        0.0404
      6 C           3.6180    0.1681    0.0000 C.2     1  UNL1        0.0779
      7 C           4.5691   -0.1410    0.0000 C.2     1  UNL1        0.1737
      8 C           4.7770   -1.1191    0.0000 C.3     1  UNL1       -0.0002
      9 H           2.3738    1.7357    0.0000 H       1  UNL1        0.0287
     10 H           1.7026    1.2480    0.0000 H       1  UNL1        0.0287
     11 H           3.9155    1.2480    0.0000 H       1  UNL1        0.0330
     12 H           3.2442    1.7357    0.0000 H       1  UNL1        0.0330
     13 H           1.4336    0.4202    0.0000 H       1  UNL1        0.0508
     14 H           1.6900   -0.3689    0.0000 H       1  UNL1        0.0508
     15 H           4.1706   -1.2480    0.0000 H       1  UNL1        0.0310
     16 H           4.9059   -1.7256    0.0000 H       1  UNL1        0.0310
     17 H           5.3834   -0.9902    0.0000 H       1  UNL1        0.0310
@<TRIPOS>BOND
     1     1     7    2
     2     2     5    1
     3     2     6    2
     4     3     4    1
     5     3     5    1
     6     3     9    1
     7     3    10    1
     8     4     6    1
     9     4    11    1
    10     4    12    1
    11     5    13    1
    12     5    14    1
    13     6     7    1
    14     7     8    1
    15     8    15    1
    16     8    16    1
    17     8    17    1
