@<TRIPOS>MOLECULE
IMPHY013928
 179 189 0 0 0
SMALL
GASTEIGER

@<TRIPOS>ATOM
      1 O           6.2799    4.2310    0.0000 O.3     1  UNL1       -0.3719
      2 O           6.1757    6.6278    0.0000 O.3     1  UNL1       -0.3911
      3 O          11.6748    0.3742    0.0000 O.3     1  UNL1       -0.3449
      4 O           2.0000    4.9834    0.0000 O.2     1  UNL1       -0.3005
      5 O          12.5408    1.8742    0.0000 O.3     1  UNL1       -0.3460
      6 O          13.4068   -0.6258    0.0000 O.3     1  UNL1       -0.3377
      7 O          15.1389    0.3742    0.0000 O.3     1  UNL1       -0.3400
      8 O          15.1389    2.3742    0.0000 O.3     1  UNL1       -0.3405
      9 O          11.6748   -0.6258    0.0000 O.3     1  UNL1       -0.3405
     10 O          16.0049    1.8742    0.0000 O.3     1  UNL1       -0.3405
     11 O          13.4068   -2.6258    0.0000 O.3     1  UNL1       -0.3378
     12 O          16.0049    3.8742    0.0000 O.3     1  UNL1       -0.3461
     13 O          11.6748   -3.6258    0.0000 O.3     1  UNL1       -0.3864
     14 O          16.8709   -0.6258    0.0000 O.3     1  UNL1       -0.3841
     15 O           9.9427   -2.6258    0.0000 O.3     1  UNL1       -0.3865
     16 O          13.4068    3.3742    0.0000 O.3     1  UNL1       -0.3841
     17 O          18.6030    0.3742    0.0000 O.3     1  UNL1       -0.3864
     18 O          18.6030    2.3742    0.0000 O.3     1  UNL1       -0.3865
     19 O          13.4068    5.3742    0.0000 O.3     1  UNL1       -0.3864
     20 O          12.5408   -4.1258    0.0000 O.3     1  UNL1       -0.3405
     21 O           9.0767   -1.1258    0.0000 O.3     1  UNL1       -0.3924
     22 O          15.1389    6.3742    0.0000 O.3     1  UNL1       -0.3869
     23 O          17.7370    3.8742    0.0000 O.3     1  UNL1       -0.3924
     24 O          15.1389   -3.6258    0.0000 O.3     1  UNL1       -0.3841
     25 O          15.1389   -5.6258    0.0000 O.3     1  UNL1       -0.3864
     26 O          13.4068   -6.6258    0.0000 O.3     1  UNL1       -0.3865
     27 O          10.8088   -5.1258    0.0000 O.3     1  UNL1       -0.3924
     28 C           7.0321    4.1245    0.0000 C.3     1  UNL1        0.0053
     29 C           6.1642    3.6279    0.0000 C.3     1  UNL1        0.0790
     30 C           7.9402    3.6142    0.0000 C.3     1  UNL1       -0.0206
     31 C           5.3001    4.1312    0.0000 C.3     1  UNL1       -0.0004
     32 C           7.9442    2.5726    0.0000 C.3     1  UNL1       -0.0293
     33 C           5.3039    5.1312    0.0000 C.3     1  UNL1        0.0256
     34 C           8.8775    2.0192    0.0000 C.3     1  UNL1       -0.0252
     35 C           7.0360    5.1245    0.0000 C.3     1  UNL1       -0.0177
     36 C           6.1441    2.5864    0.0000 C.3     1  UNL1       -0.0226
     37 C           6.1719    5.6279    0.0000 C.3     1  UNL1        0.0639
     38 C           7.0401    2.0552    0.0000 C.3     1  UNL1       -0.0466
     39 C           9.8192    2.5581    0.0000 C.3     1  UNL1       -0.0278
     40 C           8.8692    4.1747    0.0000 C.3     1  UNL1       -0.0465
     41 C           5.8826    4.9254    0.0000 C.3     1  UNL1        0.0567
     42 C           4.4041    3.6000    0.0000 C.3     1  UNL1       -0.0350
     43 C           4.4121    5.6693    0.0000 C.3     1  UNL1       -0.0417
     44 C           9.8150    3.6431    0.0000 C.3     1  UNL1       -0.0486
     45 C           7.6778    4.8881    0.0000 C.3     1  UNL1       -0.0563
     46 C           8.2785    4.5552    0.0000 C.3     1  UNL1       -0.0587
     47 C          10.8044    2.0044    0.0000 C.3     1  UNL1       -0.0052
     48 C           8.8557    0.8893    0.0000 C.3     1  UNL1       -0.0447
     49 C           3.5000    4.1173    0.0000 C.3     1  UNL1        0.0236
     50 C           3.5040    5.1590    0.0000 C.3     1  UNL1       -0.0405
     51 C           8.0095    1.5226    0.0000 C.3     1  UNL1       -0.0590
     52 C          10.8088    0.8742    0.0000 C.3     1  UNL1        0.0672
     53 C           9.8278    0.3129    0.0000 C.3     1  UNL1       -0.0255
     54 C          11.2977    2.8742    0.0000 C.3     1  UNL1       -0.0572
     55 C          11.8044    2.0121    0.0000 C.3     1  UNL1       -0.0572
     56 C           3.0000    3.2513    0.0000 C.3     1  UNL1       -0.0531
     57 C           2.5000    4.1173    0.0000 C.2     1  UNL1        0.1262
     58 C          12.5408    0.8742    0.0000 C.3     1  UNL1        0.1882
     59 C          13.4068    0.3742    0.0000 C.3     1  UNL1        0.1410
     60 C          14.2729    0.8742    0.0000 C.3     1  UNL1        0.1210
     61 C          13.4068    2.3742    0.0000 C.3     1  UNL1        0.0796
     62 C          14.2729    1.8742    0.0000 C.3     1  UNL1        0.1138
     63 C          12.5408   -1.1258    0.0000 C.3     1  UNL1        0.1889
     64 C          16.0049    0.8742    0.0000 C.3     1  UNL1        0.1884
     65 C          12.5408   -2.1258    0.0000 C.3     1  UNL1        0.1406
     66 C          15.1389    3.3742    0.0000 C.3     1  UNL1        0.1880
     67 C          11.6748   -2.6258    0.0000 C.3     1  UNL1        0.1144
     68 C          16.8709    0.3742    0.0000 C.3     1  UNL1        0.1341
     69 C          10.8088   -1.1258    0.0000 C.3     1  UNL1        0.1130
     70 C          10.8088   -2.1258    0.0000 C.3     1  UNL1        0.1119
     71 C          14.2729    3.8742    0.0000 C.3     1  UNL1        0.1341
     72 C          17.7370    0.8742    0.0000 C.3     1  UNL1        0.1141
     73 C          16.8709    2.3742    0.0000 C.3     1  UNL1        0.1130
     74 C          17.7370    1.8742    0.0000 C.3     1  UNL1        0.1119
     75 C          14.2729    4.8742    0.0000 C.3     1  UNL1        0.1137
     76 C           9.9427   -0.6258    0.0000 C.3     1  UNL1        0.0730
     77 C          13.4068   -3.6258    0.0000 C.3     1  UNL1        0.1885
     78 C          16.0049    4.8742    0.0000 C.3     1  UNL1        0.0792
     79 C          15.1389    5.3742    0.0000 C.3     1  UNL1        0.1069
     80 C          16.8709    3.3742    0.0000 C.3     1  UNL1        0.0730
     81 C          14.2729   -4.1258    0.0000 C.3     1  UNL1        0.1341
     82 C          14.2729   -5.1258    0.0000 C.3     1  UNL1        0.1141
     83 C          12.5408   -5.1258    0.0000 C.3     1  UNL1        0.1130
     84 C          13.4068   -5.6258    0.0000 C.3     1  UNL1        0.1119
     85 C          11.6748   -5.6258    0.0000 C.3     1  UNL1        0.0730
     86 H           5.2968    3.2812    0.0000 H       1  UNL1        0.0336
     87 H           7.9376    1.7226    0.0000 H       1  UNL1        0.0312
     88 H           7.6461    5.0145    0.0000 H       1  UNL1        0.0297
     89 H           7.2503    5.7063    0.0000 H       1  UNL1        0.0297
     90 H           5.5354    2.7043    0.0000 H       1  UNL1        0.0293
     91 H           5.9238    2.0069    0.0000 H       1  UNL1        0.0293
     92 H           6.7100    5.9358    0.0000 H       1  UNL1        0.0600
     93 H           6.6373    1.5839    0.0000 H       1  UNL1        0.0269
     94 H           7.4356    1.5777    0.0000 H       1  UNL1        0.0269
     95 H          10.3537    2.8722    0.0000 H       1  UNL1        0.0312
     96 H           9.2609    4.6552    0.0000 H       1  UNL1        0.0271
     97 H           8.4628    4.6429    0.0000 H       1  UNL1        0.0271
     98 H           6.4859    5.0683    0.0000 H       1  UNL1        0.0566
     99 H           5.9164    5.5445    0.0000 H       1  UNL1        0.0566
    100 H           4.0086    3.1225    0.0000 H       1  UNL1        0.0278
    101 H           4.8069    3.1286    0.0000 H       1  UNL1        0.0278
    102 H           4.8185    6.1375    0.0000 H       1  UNL1        0.0272
    103 H           4.0203    6.1498    0.0000 H       1  UNL1        0.0272
    104 H          10.4263    3.5394    0.0000 H       1  UNL1        0.0268
    105 H          10.0218    4.2276    0.0000 H       1  UNL1        0.0268
    106 H           8.1513    4.4877    0.0000 H       1  UNL1        0.0236
    107 H           8.0782    5.3615    0.0000 H       1  UNL1        0.0236
    108 H           7.2044    5.2884    0.0000 H       1  UNL1        0.0236
    109 H           8.8620    4.3454    0.0000 H       1  UNL1        0.0235
    110 H           8.4884    5.1386    0.0000 H       1  UNL1        0.0235
    111 H           7.6951    4.7650    0.0000 H       1  UNL1        0.0235
    112 H           8.2470    1.0071    0.0000 H       1  UNL1        0.0271
    113 H           8.6354    0.3097    0.0000 H       1  UNL1        0.0271
    114 H           3.2972    5.7434    0.0000 H       1  UNL1        0.0275
    115 H           2.8928    5.0552    0.0000 H       1  UNL1        0.0275
    116 H           7.7016    2.0607    0.0000 H       1  UNL1        0.0235
    117 H           7.4714    1.2146    0.0000 H       1  UNL1        0.0235
    118 H           8.3174    0.9844    0.0000 H       1  UNL1        0.0235
    119 H          11.3451    1.1853    0.0000 H       1  UNL1        0.0602
    120 H           9.4250   -0.1584    0.0000 H       1  UNL1        0.0290
    121 H          10.2233   -0.1646    0.0000 H       1  UNL1        0.0290
    122 H           6.7139    6.9358    0.0000 H       1  UNL1        0.2098
    123 H          11.8370    2.5684    0.0000 H       1  UNL1        0.0236
    124 H          11.6036    3.4135    0.0000 H       1  UNL1        0.0236
    125 H          10.7584    3.1801    0.0000 H       1  UNL1        0.0236
    126 H          11.8092    1.3921    0.0000 H       1  UNL1        0.0236
    127 H          12.4244    2.0169    0.0000 H       1  UNL1        0.0236
    128 H          11.7996    2.6321    0.0000 H       1  UNL1        0.0236
    129 H           2.4631    3.5613    0.0000 H       1  UNL1        0.0239
    130 H           2.6900    2.7144    0.0000 H       1  UNL1        0.0239
    131 H           3.5369    2.9413    0.0000 H       1  UNL1        0.0239
    132 H           2.1900    3.5804    0.0000 H       1  UNL1        0.1032
    133 H          12.5408    0.2542    0.0000 H       1  UNL1        0.0937
    134 H          13.9438    0.0642    0.0000 H       1  UNL1        0.0675
    135 H          14.8098    1.1842    0.0000 H       1  UNL1        0.0651
    136 H          13.8054    2.8492    0.0000 H       1  UNL1        0.0587
    137 H          13.0083    2.8492    0.0000 H       1  UNL1        0.0587
    138 H          14.2729    2.4942    0.0000 H       1  UNL1        0.0647
    139 H          13.0777   -1.4358    0.0000 H       1  UNL1        0.0938
    140 H          15.4680    1.1842    0.0000 H       1  UNL1        0.0938
    141 H          12.5408   -2.7458    0.0000 H       1  UNL1        0.0675
    142 H          14.6020    3.0642    0.0000 H       1  UNL1        0.0937
    143 H          12.2117   -2.9358    0.0000 H       1  UNL1        0.0648
    144 H          17.4079    0.0642    0.0000 H       1  UNL1        0.0671
    145 H          10.8088   -0.5058    0.0000 H       1  UNL1        0.0647
    146 H          10.8088   -2.7458    0.0000 H       1  UNL1        0.0647
    147 H          13.7359    4.1842    0.0000 H       1  UNL1        0.0671
    148 H          17.7370    0.2542    0.0000 H       1  UNL1        0.0648
    149 H          16.3340    2.6842    0.0000 H       1  UNL1        0.0647
    150 H          18.2739    1.5642    0.0000 H       1  UNL1        0.0647
    151 H          14.2729    5.4942    0.0000 H       1  UNL1        0.0647
    152 H          10.3413   -0.1508    0.0000 H       1  UNL1        0.0584
    153 H           9.5442   -0.1508    0.0000 H       1  UNL1        0.0584
    154 H          12.8699   -3.3158    0.0000 H       1  UNL1        0.0938
    155 H          16.6155    4.7666    0.0000 H       1  UNL1        0.0587
    156 H          16.2170    5.4568    0.0000 H       1  UNL1        0.0587
    157 H          11.1378   -3.9358    0.0000 H       1  UNL1        0.2100
    158 H          17.4079   -0.9358    0.0000 H       1  UNL1        0.2101
    159 H          15.6758    5.6842    0.0000 H       1  UNL1        0.0643
    160 H           9.4058   -2.3158    0.0000 H       1  UNL1        0.2100
    161 H          12.8699    3.6842    0.0000 H       1  UNL1        0.2101
    162 H          16.6589    3.9568    0.0000 H       1  UNL1        0.0584
    163 H          16.2604    3.2666    0.0000 H       1  UNL1        0.0584
    164 H          19.1399    0.6842    0.0000 H       1  UNL1        0.2100
    165 H          14.8098   -4.4358    0.0000 H       1  UNL1        0.0671
    166 H          19.1399    2.0642    0.0000 H       1  UNL1        0.2100
    167 H          13.4068    5.9942    0.0000 H       1  UNL1        0.2100
    168 H           8.5398   -0.8158    0.0000 H       1  UNL1        0.2095
    169 H          14.2729   -5.7458    0.0000 H       1  UNL1        0.0648
    170 H          15.6758    6.6842    0.0000 H       1  UNL1        0.2100
    171 H          12.0039   -4.8158    0.0000 H       1  UNL1        0.0647
    172 H          12.8699   -5.9358    0.0000 H       1  UNL1        0.0647
    173 H          17.7370    4.4942    0.0000 H       1  UNL1        0.2095
    174 H          15.6758   -3.9358    0.0000 H       1  UNL1        0.2101
    175 H          11.2763   -6.1007    0.0000 H       1  UNL1        0.0584
    176 H          12.0733   -6.1007    0.0000 H       1  UNL1        0.0584
    177 H          15.1389   -6.2458    0.0000 H       1  UNL1        0.2100
    178 H          12.8699   -6.9358    0.0000 H       1  UNL1        0.2100
    179 H          10.2718   -5.4358    0.0000 H       1  UNL1        0.2095
@<TRIPOS>BOND
     1     1    29    1
     2     1    41    1
     3    37     2    1
     4     2   122    1
     5    52     3    1
     6    58     3    1
     7     4    57    2
     8     5    58    1
     9     5    61    1
    10    59     6    1
    11    63     6    1
    12    60     7    1
    13    64     7    1
    14    62     8    1
    15    66     8    1
    16     9    63    1
    17     9    69    1
    18    10    64    1
    19    10    73    1
    20    65    11    1
    21    77    11    1
    22    12    66    1
    23    12    78    1
    24    67    13    1
    25    13   157    1
    26    68    14    1
    27    14   158    1
    28    70    15    1
    29    15   160    1
    30    71    16    1
    31    16   161    1
    32    72    17    1
    33    17   164    1
    34    74    18    1
    35    18   166    1
    36    75    19    1
    37    19   167    1
    38    20    77    1
    39    20    83    1
    40    21    76    1
    41    21   168    1
    42    79    22    1
    43    22   170    1
    44    23    80    1
    45    23   173    1
    46    81    24    1
    47    24   174    1
    48    82    25    1
    49    25   177    1
    50    84    26    1
    51    26   178    1
    52    27    85    1
    53    27   179    1
    54    28    29    1
    55    28    30    1
    56    28    35    1
    57    28    45    1
    58    29    31    1
    59    29    36    1
    60    30    32    1
    61    30    40    1
    62    30    46    1
    63    31    33    1
    64    31    42    1
    65    31    86    1
    66    32    34    1
    67    32    38    1
    68    32    87    1
    69    33    37    1
    70    33    41    1
    71    33    43    1
    72    34    39    1
    73    34    48    1
    74    34    51    1
    75    35    37    1
    76    35    88    1
    77    35    89    1
    78    36    38    1
    79    36    90    1
    80    36    91    1
    81    37    92    1
    82    38    93    1
    83    38    94    1
    84    39    44    1
    85    39    47    1
    86    39    95    1
    87    40    44    1
    88    40    96    1
    89    40    97    1
    90    41    98    1
    91    41    99    1
    92    42    49    1
    93    42   100    1
    94    42   101    1
    95    43    50    1
    96    43   102    1
    97    43   103    1
    98    44   104    1
    99    44   105    1
   100    45   106    1
   101    45   107    1
   102    45   108    1
   103    46   109    1
   104    46   110    1
   105    46   111    1
   106    47    52    1
   107    47    54    1
   108    47    55    1
   109    48    53    1
   110    48   112    1
   111    48   113    1
   112    49    50    1
   113    49    56    1
   114    49    57    1
   115    50   114    1
   116    50   115    1
   117    51   116    1
   118    51   117    1
   119    51   118    1
   120    52    53    1
   121    52   119    1
   122    53   120    1
   123    53   121    1
   124    54   123    1
   125    54   124    1
   126    54   125    1
   127    55   126    1
   128    55   127    1
   129    55   128    1
   130    56   129    1
   131    56   130    1
   132    56   131    1
   133    57   132    1
   134    58    59    1
   135    58   133    1
   136    59    60    1
   137    59   134    1
   138    60    62    1
   139    60   135    1
   140    61    62    1
   141    61   136    1
   142    61   137    1
   143    62   138    1
   144    63    65    1
   145    63   139    1
   146    64    68    1
   147    64   140    1
   148    65    67    1
   149    65   141    1
   150    66    71    1
   151    66   142    1
   152    67    70    1
   153    67   143    1
   154    68    72    1
   155    68   144    1
   156    69    70    1
   157    69    76    1
   158    69   145    1
   159    70   146    1
   160    71    75    1
   161    71   147    1
   162    72    74    1
   163    72   148    1
   164    73    74    1
   165    73    80    1
   166    73   149    1
   167    74   150    1
   168    75    79    1
   169    75   151    1
   170    76   152    1
   171    76   153    1
   172    77    81    1
   173    77   154    1
   174    78    79    1
   175    78   155    1
   176    78   156    1
   177    79   159    1
   178    80   162    1
   179    80   163    1
   180    81    82    1
   181    81   165    1
   182    82    84    1
   183    82   169    1
   184    83    84    1
   185    83    85    1
   186    83   171    1
   187    84   172    1
   188    85   175    1
   189    85   176    1
