@<TRIPOS>MOLECULE
IMPHY006191
 71 75 0 0 0
SMALL
GASTEIGER

@<TRIPOS>ATOM
      1 O           6.0718   -4.2675    0.0000 O.3     1  UNL1       -0.3401
      2 O           5.2058   -1.7675    0.0000 O.3     1  UNL1       -0.3313
      3 O           4.3398   -4.2675    0.0000 O.3     1  UNL1       -0.3431
      4 O           7.8039   -3.2675    0.0000 O.3     1  UNL1       -0.3863
      5 O           6.0718   -0.2675    0.0000 O.3     1  UNL1       -0.4599
      6 O           7.8039   -1.2675    0.0000 O.3     1  UNL1       -0.3829
      7 O           6.0718   -6.2675    0.0000 O.3     1  UNL1       -0.3841
      8 O           4.3398   -7.2675    0.0000 O.3     1  UNL1       -0.3864
      9 O           2.6077   -6.2675    0.0000 O.3     1  UNL1       -0.3866
     10 O           3.4738   -2.7675    0.0000 O.3     1  UNL1       -0.3924
     11 O           4.3532    2.7840    0.0000 O.2     1  UNL1       -0.4544
     12 O           2.5321   -0.2402    0.0000 O.3     1  UNL1       -0.5065
     13 O           6.9337    1.2541    0.0000 O.2     1  UNL1       -0.2869
     14 O           5.2712    7.2737    0.0000 O.3     1  UNL1       -0.5068
     15 C           6.0718   -3.2675    0.0000 C.3     1  UNL1        0.1185
     16 C           6.9378   -2.7675    0.0000 C.3     1  UNL1        0.1155
     17 C           5.2058   -2.7675    0.0000 C.3     1  UNL1        0.1144
     18 C           5.2058   -4.7675    0.0000 C.3     1  UNL1        0.1883
     19 C           6.9378   -1.7675    0.0000 C.3     1  UNL1        0.1454
     20 C           5.2058   -5.7675    0.0000 C.3     1  UNL1        0.1341
     21 C           4.3398   -6.2675    0.0000 C.3     1  UNL1        0.1140
     22 C           3.4738   -5.7675    0.0000 C.3     1  UNL1        0.1095
     23 C           6.0718   -1.2675    0.0000 C.3     1  UNL1        0.2308
     24 C           3.4738   -4.7675    0.0000 C.3     1  UNL1        0.0873
     25 C           4.3398   -3.2675    0.0000 C.3     1  UNL1        0.0731
     26 C           2.6077   -4.2675    0.0000 C.3     1  UNL1       -0.0361
     27 C           5.2058    0.2325    0.0000 C.ar    1  UNL1        0.1418
     28 C           5.2018    1.2741    0.0000 C.ar    1  UNL1        0.1058
     29 C           4.3017   -0.2848    0.0000 C.ar    1  UNL1        0.0226
     30 C           4.3416    1.7841    0.0000 C.ar    1  UNL1        0.1462
     31 C           3.4057    0.2464    0.0000 C.ar    1  UNL1        0.1239
     32 C           6.0735    1.7641    0.0000 C.ar    1  UNL1        0.1966
     33 C           3.4258    1.2878    0.0000 C.ar    1  UNL1        0.0231
     34 C           6.0851    2.7640    0.0000 C.ar    1  UNL1        0.0288
     35 C           5.2249    3.2740    0.0000 C.ar    1  UNL1        0.1392
     36 C           5.2365    4.2739    0.0000 C.ar    1  UNL1        0.0176
     37 C           6.1082    4.7639    0.0000 C.ar    1  UNL1       -0.0476
     38 C           4.3763    4.7839    0.0000 C.ar    1  UNL1       -0.0476
     39 C           6.1198    5.7638    0.0000 C.ar    1  UNL1       -0.0195
     40 C           4.3878    5.7838    0.0000 C.ar    1  UNL1       -0.0195
     41 C           5.2596    6.2738    0.0000 C.ar    1  UNL1        0.1169
     42 H           6.6088   -3.5775    0.0000 H       1  UNL1        0.0651
     43 H           7.4748   -2.4575    0.0000 H       1  UNL1        0.0648
     44 H           4.6689   -2.4575    0.0000 H       1  UNL1        0.0647
     45 H           5.2058   -4.1475    0.0000 H       1  UNL1        0.0938
     46 H           6.9378   -1.1475    0.0000 H       1  UNL1        0.0683
     47 H           5.2058   -6.3875    0.0000 H       1  UNL1        0.0671
     48 H           3.8028   -6.5775    0.0000 H       1  UNL1        0.0648
     49 H           2.9368   -5.4575    0.0000 H       1  UNL1        0.0646
     50 H           5.5349   -0.9575    0.0000 H       1  UNL1        0.1084
     51 H           3.4738   -4.1475    0.0000 H       1  UNL1        0.0621
     52 H           3.9412   -3.7424    0.0000 H       1  UNL1        0.0584
     53 H           4.7383   -3.7424    0.0000 H       1  UNL1        0.0584
     54 H           2.9177   -3.7306    0.0000 H       1  UNL1        0.0255
     55 H           2.0708   -3.9575    0.0000 H       1  UNL1        0.0255
     56 H           2.2977   -4.8044    0.0000 H       1  UNL1        0.0255
     57 H           8.3408   -2.9575    0.0000 H       1  UNL1        0.2100
     58 H           7.8039   -0.6475    0.0000 H       1  UNL1        0.2102
     59 H           6.0718   -6.8875    0.0000 H       1  UNL1        0.2101
     60 H           3.8028   -7.5775    0.0000 H       1  UNL1        0.2100
     61 H           2.0708   -5.9575    0.0000 H       1  UNL1        0.2100
     62 H           2.9368   -3.0775    0.0000 H       1  UNL1        0.2095
     63 H           4.2969   -0.9048    0.0000 H       1  UNL1        0.0691
     64 H           2.8962    1.6102    0.0000 H       1  UNL1        0.0691
     65 H           6.6256    3.0678    0.0000 H       1  UNL1        0.0693
     66 H           2.0000    0.0780    0.0000 H       1  UNL1        0.2921
     67 H           6.6415    4.4477    0.0000 H       1  UNL1        0.0626
     68 H           3.8358    4.4801    0.0000 H       1  UNL1        0.0626
     69 H           6.6603    6.0676    0.0000 H       1  UNL1        0.0654
     70 H           3.8545    6.1000    0.0000 H       1  UNL1        0.0654
     71 H           5.8116    7.5775    0.0000 H       1  UNL1        0.2921
@<TRIPOS>BOND
     1    15     1    1
     2    18     1    1
     3     2    17    1
     4     2    23    1
     5     3    18    1
     6     3    24    1
     7    16     4    1
     8     4    57    1
     9    23     5    1
    10     5    27    1
    11    19     6    1
    12     6    58    1
    13    20     7    1
    14     7    59    1
    15    21     8    1
    16     8    60    1
    17    22     9    1
    18     9    61    1
    19    10    25    1
    20    10    62    1
    21    11    30   ar
    22    11    35   ar
    23    12    31    1
    24    12    66    1
    25    13    32    2
    26    14    41    1
    27    14    71    1
    28    15    16    1
    29    15    17    1
    30    15    42    1
    31    16    19    1
    32    16    43    1
    33    17    25    1
    34    17    44    1
    35    18    20    1
    36    18    45    1
    37    19    23    1
    38    19    46    1
    39    20    21    1
    40    20    47    1
    41    21    22    1
    42    21    48    1
    43    22    24    1
    44    22    49    1
    45    23    50    1
    46    24    26    1
    47    24    51    1
    48    25    52    1
    49    25    53    1
    50    26    54    1
    51    26    55    1
    52    26    56    1
    53    27    28   ar
    54    27    29   ar
    55    28    30   ar
    56    28    32   ar
    57    29    31   ar
    58    29    63    1
    59    30    33   ar
    60    31    33   ar
    61    32    34   ar
    62    33    64    1
    63    34    35   ar
    64    34    65    1
    65    35    36    1
    66    36    37   ar
    67    36    38   ar
    68    37    39   ar
    69    37    67    1
    70    38    40   ar
    71    38    68    1
    72    39    41   ar
    73    39    69    1
    74    40    41   ar
    75    40    70    1
