@<TRIPOS>MOLECULE
IMPHY012605
 16 15 0 0 0
SMALL
GASTEIGER

@<TRIPOS>ATOM
      1 O           5.4641    1.2500    0.0000 O.2     1  UNL1       -0.2759
      2 N           4.5981   -0.2500    0.0000 N.am    1  UNL1       -0.2916
      3 N           2.0000   -0.7500    0.0000 N.1     1  UNL1       -0.1949
      4 C           3.7320    0.2500    0.0000 C.3     1  UNL1        0.1015
      5 C           5.4641    0.2500    0.0000 C.2     1  UNL1        0.2130
      6 C           4.5981   -1.2500    0.0000 C.3     1  UNL1        0.0041
      7 C           6.3301   -0.2500    0.0000 C.3     1  UNL1        0.0124
      8 C           2.8660   -0.2500    0.0000 C.1     1  UNL1        0.0817
      9 H           4.1306    0.7249    0.0000 H       1  UNL1        0.0622
     10 H           3.3335    0.7249    0.0000 H       1  UNL1        0.0622
     11 H           3.9781   -1.2500    0.0000 H       1  UNL1        0.0429
     12 H           4.5981   -1.8700    0.0000 H       1  UNL1        0.0429
     13 H           5.2181   -1.2500    0.0000 H       1  UNL1        0.0429
     14 H           6.0201   -0.7869    0.0000 H       1  UNL1        0.0323
     15 H           6.8671   -0.5600    0.0000 H       1  UNL1        0.0323
     16 H           6.6401    0.2869    0.0000 H       1  UNL1        0.0323
@<TRIPOS>BOND
     1     1     5    2
     2     2     4    1
     3     2     5   am
     4     2     6    1
     5     3     8    3
     6     4     8    1
     7     4     9    1
     8     4    10    1
     9     5     7    1
    10     6    11    1
    11     6    12    1
    12     6    13    1
    13     7    14    1
    14     7    15    1
    15     7    16    1
