@<TRIPOS>MOLECULE
IMPHY003853
 16 15 0 0 0
SMALL
GASTEIGER

@<TRIPOS>ATOM
      1 O           6.3301    0.2500    0.0000 O.3     1  UNL1       -0.3910
      2 C           2.8660    0.2500    0.0000 C.3     1  UNL1       -0.0375
      3 C           3.7320   -0.2500    0.0000 C.2     1  UNL1       -0.0861
      4 C           2.0000   -0.2500    0.0000 C.3     1  UNL1       -0.0618
      5 C           4.5981    0.2500    0.0000 C.2     1  UNL1       -0.0629
      6 C           5.4641   -0.2500    0.0000 C.3     1  UNL1        0.0624
      7 H           3.2646    0.7249    0.0000 H       1  UNL1        0.0305
      8 H           2.4675    0.7249    0.0000 H       1  UNL1        0.0305
      9 H           3.7320   -0.8700    0.0000 H       1  UNL1        0.0570
     10 H           1.6900    0.2869    0.0000 H       1  UNL1        0.0233
     11 H           1.4631   -0.5600    0.0000 H       1  UNL1        0.0233
     12 H           2.3100   -0.7869    0.0000 H       1  UNL1        0.0233
     13 H           4.5981    0.8700    0.0000 H       1  UNL1        0.0591
     14 H           5.0656   -0.7249    0.0000 H       1  UNL1        0.0601
     15 H           5.8626   -0.7249    0.0000 H       1  UNL1        0.0601
     16 H           6.8671   -0.0600    0.0000 H       1  UNL1        0.2098
@<TRIPOS>BOND
     1     1     6    1
     2     1    16    1
     3     2     3    1
     4     2     4    1
     5     2     7    1
     6     2     8    1
     7     3     5    2
     8     3     9    1
     9     4    10    1
    10     4    11    1
    11     4    12    1
    12     5     6    1
    13     5    13    1
    14     6    14    1
    15     6    15    1
