@<TRIPOS>MOLECULE
IMPHY016854
 42 42 0 0 0
SMALL
GASTEIGER

@<TRIPOS>ATOM
      1 O           6.0981    0.7500    0.0000 O.3     1  UNL1       -0.3909
      2 C           3.5000    0.2500    0.0000 C.3     1  UNL1       -0.0055
      3 C           5.2320   -0.7500    0.0000 C.3     1  UNL1       -0.0120
      4 C           4.3660    0.7500    0.0000 C.3     1  UNL1        0.0147
      5 C           5.2320    0.2500    0.0000 C.3     1  UNL1        0.0655
      6 C           3.5000   -0.7500    0.0000 C.3     1  UNL1       -0.0432
      7 C           4.3660   -1.2500    0.0000 C.3     1  UNL1       -0.0468
      8 C           6.0981   -1.2500    0.0000 C.3     1  UNL1       -0.0415
      9 C           3.0000    1.1160    0.0000 C.3     1  UNL1       -0.0555
     10 C           4.3660    1.7500    0.0000 C.2     1  UNL1       -0.0734
     11 C           2.5000    0.2500    0.0000 C.2     1  UNL1       -0.0845
     12 C           6.0981   -2.2500    0.0000 C.3     1  UNL1       -0.0623
     13 C           6.9641   -0.7500    0.0000 C.3     1  UNL1       -0.0623
     14 C           5.2320    2.2500    0.0000 C.3     1  UNL1       -0.0437
     15 C           3.5000    2.2500    0.0000 C.2     1  UNL1       -0.0993
     16 C           2.0000   -0.6160    0.0000 C.2     1  UNL1       -0.1021
     17 H           5.2320   -1.3700    0.0000 H       1  UNL1        0.0328
     18 H           3.8291    1.0600    0.0000 H       1  UNL1        0.0379
     19 H           5.2320    0.8700    0.0000 H       1  UNL1        0.0602
     20 H           2.8894   -0.6423    0.0000 H       1  UNL1        0.0274
     21 H           3.2880   -1.3326    0.0000 H       1  UNL1        0.0274
     22 H           3.9675   -1.7250    0.0000 H       1  UNL1        0.0269
     23 H           4.7646   -1.7250    0.0000 H       1  UNL1        0.0269
     24 H           6.0981   -0.6300    0.0000 H       1  UNL1        0.0299
     25 H           3.5369    1.4260    0.0000 H       1  UNL1        0.0238
     26 H           2.6900    1.6530    0.0000 H       1  UNL1        0.0238
     27 H           2.4631    0.8060    0.0000 H       1  UNL1        0.0238
     28 H           2.1900    0.7869    0.0000 H       1  UNL1        0.0572
     29 H           5.4781   -2.2500    0.0000 H       1  UNL1        0.0232
     30 H           6.0981   -2.8700    0.0000 H       1  UNL1        0.0232
     31 H           6.7181   -2.2500    0.0000 H       1  UNL1        0.0232
     32 H           7.2741   -1.2869    0.0000 H       1  UNL1        0.0232
     33 H           7.5010   -0.4400    0.0000 H       1  UNL1        0.0232
     34 H           6.6541   -0.2131    0.0000 H       1  UNL1        0.0232
     35 H           6.6350    0.4400    0.0000 H       1  UNL1        0.2098
     36 H           5.5420    1.7131    0.0000 H       1  UNL1        0.0274
     37 H           5.7690    2.5600    0.0000 H       1  UNL1        0.0274
     38 H           4.9220    2.7869    0.0000 H       1  UNL1        0.0274
     39 H           3.5000    2.8700    0.0000 H       1  UNL1        0.0534
     40 H           2.9631    1.9400    0.0000 H       1  UNL1        0.0534
     41 H           1.3800   -0.6160    0.0000 H       1  UNL1        0.0532
     42 H           2.3100   -1.1530    0.0000 H       1  UNL1        0.0532
@<TRIPOS>BOND
     1     1     5    1
     2     1    35    1
     3     2     4    1
     4     2     6    1
     5     2     9    1
     6     2    11    1
     7     3     5    1
     8     3     7    1
     9     3     8    1
    10     3    17    1
    11     4     5    1
    12     4    10    1
    13     4    18    1
    14     5    19    1
    15     6     7    1
    16     6    20    1
    17     6    21    1
    18     7    22    1
    19     7    23    1
    20     8    12    1
    21     8    13    1
    22     8    24    1
    23     9    25    1
    24     9    26    1
    25     9    27    1
    26    10    14    1
    27    10    15    2
    28    11    16    2
    29    11    28    1
    30    12    29    1
    31    12    30    1
    32    12    31    1
    33    13    32    1
    34    13    33    1
    35    13    34    1
    36    14    36    1
    37    14    37    1
    38    14    38    1
    39    15    39    1
    40    15    40    1
    41    16    41    1
    42    16    42    1
