@<TRIPOS>MOLECULE
IMPHY003510
 76 79 0 0 0
SMALL
GASTEIGER

@<TRIPOS>ATOM
      1 O          11.2536   -3.5447    0.0000 O.3     1  UNL1       -0.3935
      2 O          12.9972   -0.5514    0.0000 O.3     1  UNL1       -0.3935
      3 O           4.2690    3.4828    0.0000 O.3     1  UNL1       -0.3935
      4 O           2.5369    0.4828    0.0000 O.3     1  UNL1       -0.3935
      5 N           6.8671   -2.0172    0.0000 N.pl3   1  UNL1       -0.3134
      6 N           8.6155    2.0174    0.0000 N.pl3   1  UNL1       -0.3134
      7 N           6.0010   -0.5172    0.0000 N.ar    1  UNL1       -0.1972
      8 N           9.5331    0.5036    0.0000 N.ar    1  UNL1       -0.1972
      9 N           8.6270   -1.0519    0.0000 N.ar    1  UNL1       -0.2092
     10 N           6.8671    0.9828    0.0000 N.ar    1  UNL1       -0.2092
     11 N           5.1350    0.9828    0.0000 N.pl3   1  UNL1       -0.2952
     12 N          10.3972   -1.0414    0.0000 N.pl3   1  UNL1       -0.2952
     13 C           6.0010   -2.5172    0.0000 C.3     1  UNL1        0.0136
     14 C           7.7331   -2.5172    0.0000 C.3     1  UNL1        0.0136
     15 C           9.4756    2.5273    0.0000 C.3     1  UNL1        0.0136
     16 C           7.7437    2.5073    0.0000 C.3     1  UNL1        0.0136
     17 C           6.0010   -3.5172    0.0000 C.3     1  UNL1       -0.0371
     18 C           7.7331   -3.5172    0.0000 C.3     1  UNL1       -0.0371
     19 C           9.4641    3.5273    0.0000 C.3     1  UNL1       -0.0371
     20 C           7.7322    3.5072    0.0000 C.3     1  UNL1       -0.0371
     21 C           8.5923    4.0172    0.0000 C.3     1  UNL1       -0.0502
     22 C           6.8671   -4.0172    0.0000 C.3     1  UNL1       -0.0502
     23 C           6.8671   -1.0172    0.0000 C.ar    1  UNL1        0.1528
     24 C           8.6270    1.0174    0.0000 C.ar    1  UNL1        0.1528
     25 C           7.7331   -0.5172    0.0000 C.ar    1  UNL1        0.1360
     26 C           7.7331    0.4828    0.0000 C.ar    1  UNL1        0.1360
     27 C           6.0010    0.4828    0.0000 C.ar    1  UNL1        0.2204
     28 C           9.5331   -0.5380    0.0000 C.ar    1  UNL1        0.2204
     29 C           4.2690    0.4828    0.0000 C.3     1  UNL1        0.0381
     30 C           5.1350    1.9828    0.0000 C.3     1  UNL1        0.0381
     31 C          11.2651   -0.5447    0.0000 C.3     1  UNL1        0.0381
     32 C          10.3933   -2.0414    0.0000 C.3     1  UNL1        0.0381
     33 C           3.4030    0.9828    0.0000 C.3     1  UNL1        0.0600
     34 C           4.2690    2.4828    0.0000 C.3     1  UNL1        0.0600
     35 C          12.1292   -1.0481    0.0000 C.3     1  UNL1        0.0600
     36 C          11.2574   -2.5447    0.0000 C.3     1  UNL1        0.0600
     37 H           5.7890   -1.9346    0.0000 H       1  UNL1        0.0464
     38 H           5.3905   -2.6249    0.0000 H       1  UNL1        0.0464
     39 H           8.3437   -2.6249    0.0000 H       1  UNL1        0.0464
     40 H           7.9451   -1.9346    0.0000 H       1  UNL1        0.0464
     41 H           9.6944    1.9472    0.0000 H       1  UNL1        0.0464
     42 H          10.0849    2.6421    0.0000 H       1  UNL1        0.0464
     43 H           7.1319    2.6079    0.0000 H       1  UNL1        0.0464
     44 H           7.5384    1.9223    0.0000 H       1  UNL1        0.0464
     45 H           5.3905   -3.4096    0.0000 H       1  UNL1        0.0280
     46 H           5.7890   -4.0998    0.0000 H       1  UNL1        0.0280
     47 H           7.9451   -4.0998    0.0000 H       1  UNL1        0.0280
     48 H           8.3437   -3.4096    0.0000 H       1  UNL1        0.0280
     49 H          10.0759    3.4267    0.0000 H       1  UNL1        0.0280
     50 H           9.6694    4.1123    0.0000 H       1  UNL1        0.0280
     51 H           7.5134    4.0874    0.0000 H       1  UNL1        0.0280
     52 H           7.1229    3.3925    0.0000 H       1  UNL1        0.0280
     53 H           6.4685   -4.4922    0.0000 H       1  UNL1        0.0266
     54 H           7.2656   -4.4922    0.0000 H       1  UNL1        0.0266
     55 H           8.9854    4.4967    0.0000 H       1  UNL1        0.0266
     56 H           8.1884    4.4875    0.0000 H       1  UNL1        0.0266
     57 H           3.8705    0.0078    0.0000 H       1  UNL1        0.0487
     58 H           4.6675    0.0078    0.0000 H       1  UNL1        0.0487
     59 H           5.7456    1.8751    0.0000 H       1  UNL1        0.0487
     60 H           5.3471    2.5654    0.0000 H       1  UNL1        0.0487
     61 H          11.6655   -0.0713    0.0000 H       1  UNL1        0.0487
     62 H          10.8684   -0.0682    0.0000 H       1  UNL1        0.0487
     63 H           9.7832   -1.9314    0.0000 H       1  UNL1        0.0487
     64 H          10.1790   -2.6232    0.0000 H       1  UNL1        0.0487
     65 H           3.8015    1.4577    0.0000 H       1  UNL1        0.0573
     66 H           3.0044    1.4577    0.0000 H       1  UNL1        0.0573
     67 H           3.6584    2.5904    0.0000 H       1  UNL1        0.0573
     68 H           4.0569    1.9002    0.0000 H       1  UNL1        0.0573
     69 H          11.7289   -1.5215    0.0000 H       1  UNL1        0.0573
     70 H          12.5259   -1.5245    0.0000 H       1  UNL1        0.0573
     71 H          11.8676   -2.6547    0.0000 H       1  UNL1        0.0573
     72 H          11.4717   -1.9629    0.0000 H       1  UNL1        0.0573
     73 H           2.0000    0.7928    0.0000 H       1  UNL1        0.2095
     74 H           3.7320    3.7928    0.0000 H       1  UNL1        0.2095
     75 H          13.5329   -0.8635    0.0000 H       1  UNL1        0.2095
     76 H          11.7893   -3.8568    0.0000 H       1  UNL1        0.2095
@<TRIPOS>BOND
     1     1    36    1
     2     1    76    1
     3     2    35    1
     4     2    75    1
     5     3    34    1
     6     3    74    1
     7     4    33    1
     8     4    73    1
     9     5    13    1
    10     5    14    1
    11     5    23    1
    12     6    15    1
    13     6    16    1
    14     6    24    1
    15     7    23   ar
    16     7    27   ar
    17     8    24   ar
    18     8    28   ar
    19     9    25   ar
    20     9    28   ar
    21    10    26   ar
    22    10    27   ar
    23    11    27    1
    24    11    29    1
    25    11    30    1
    26    12    28    1
    27    12    31    1
    28    12    32    1
    29    13    17    1
    30    13    37    1
    31    13    38    1
    32    14    18    1
    33    14    39    1
    34    14    40    1
    35    15    19    1
    36    15    41    1
    37    15    42    1
    38    16    20    1
    39    16    43    1
    40    16    44    1
    41    17    22    1
    42    17    45    1
    43    17    46    1
    44    18    22    1
    45    18    47    1
    46    18    48    1
    47    19    21    1
    48    19    49    1
    49    19    50    1
    50    20    21    1
    51    20    51    1
    52    20    52    1
    53    21    55    1
    54    21    56    1
    55    22    53    1
    56    22    54    1
    57    23    25   ar
    58    24    26   ar
    59    25    26   ar
    60    29    33    1
    61    29    57    1
    62    29    58    1
    63    30    34    1
    64    30    59    1
    65    30    60    1
    66    31    35    1
    67    31    61    1
    68    31    62    1
    69    32    36    1
    70    32    63    1
    71    32    64    1
    72    33    65    1
    73    33    66    1
    74    34    67    1
    75    34    68    1
    76    35    69    1
    77    35    70    1
    78    36    71    1
    79    36    72    1
