@<TRIPOS>MOLECULE
IMPHY008043
 33 35 0 0 0
SMALL
GASTEIGER

@<TRIPOS>ATOM
      1 O           6.3981   -0.9254    0.0000 O.2     1  UNL1       -0.4507
      2 O           2.8680   -0.9495    0.0000 O.3     1  UNL1       -0.4949
      3 O           8.1301    1.0746    0.0000 O.3     1  UNL1       -0.5007
      4 O           4.6497    2.1092    0.0000 O.3     1  UNL1       -0.5058
      5 O           6.3981    2.0746    0.0000 O.2     1  UNL1       -0.2830
      6 C           5.5320    0.5746    0.0000 C.ar    1  UNL1        0.1092
      7 C           5.5320   -0.4254    0.0000 C.ar    1  UNL1        0.1465
      8 C           7.2641   -0.4254    0.0000 C.ar    1  UNL1        0.1806
      9 C           6.3981    1.0746    0.0000 C.ar    1  UNL1        0.2379
     10 C           7.2641    0.5746    0.0000 C.ar    1  UNL1        0.2082
     11 C           4.6381    1.1093    0.0000 C.ar    1  UNL1        0.1348
     12 C           8.1301   -0.9254    0.0000 C.ar    1  UNL1        0.0211
     13 C           4.6381   -0.9601    0.0000 C.ar    1  UNL1        0.0233
     14 C           3.7320   -0.4462    0.0000 C.ar    1  UNL1        0.1271
     15 C           3.7320    0.5954    0.0000 C.ar    1  UNL1        0.0225
     16 C           8.1301   -1.9254    0.0000 C.ar    1  UNL1       -0.0510
     17 C           8.9962   -0.4254    0.0000 C.ar    1  UNL1       -0.0510
     18 C           8.9962   -2.4254    0.0000 C.ar    1  UNL1       -0.0611
     19 C           9.8622   -0.9254    0.0000 C.ar    1  UNL1       -0.0611
     20 C           9.8622   -1.9254    0.0000 C.ar    1  UNL1       -0.0617
     21 C           2.0000   -0.4529    0.0000 C.3     1  UNL1        0.0788
     22 H           4.6453   -1.5800    0.0000 H       1  UNL1        0.0691
     23 H           3.1963    0.9075    0.0000 H       1  UNL1        0.0691
     24 H           7.5932   -2.2354    0.0000 H       1  UNL1        0.0625
     25 H           8.9962    0.1946    0.0000 H       1  UNL1        0.0625
     26 H           8.9962   -3.0454    0.0000 H       1  UNL1        0.0618
     27 H          10.3991   -0.6154    0.0000 H       1  UNL1        0.0618
     28 H          10.3991   -2.2354    0.0000 H       1  UNL1        0.0618
     29 H           8.1301    1.6946    0.0000 H       1  UNL1        0.2924
     30 H           4.1164    2.4254    0.0000 H       1  UNL1        0.2922
     31 H           2.3079    0.0852    0.0000 H       1  UNL1        0.0660
     32 H           1.4619   -0.1450    0.0000 H       1  UNL1        0.0660
     33 H           1.6921   -0.9910    0.0000 H       1  UNL1        0.0660
@<TRIPOS>BOND
     1     1     7   ar
     2     1     8   ar
     3     2    14    1
     4     2    21    1
     5     3    10    1
     6     3    29    1
     7     4    11    1
     8     4    30    1
     9     5     9    2
    10     6     7   ar
    11     6     9   ar
    12     6    11   ar
    13     7    13   ar
    14     8    10   ar
    15     8    12    1
    16     9    10   ar
    17    11    15   ar
    18    12    16   ar
    19    12    17   ar
    20    13    14   ar
    21    13    22    1
    22    14    15   ar
    23    15    23    1
    24    16    18   ar
    25    16    24    1
    26    17    19   ar
    27    17    25    1
    28    18    20   ar
    29    18    26    1
    30    19    20   ar
    31    19    27    1
    32    20    28    1
    33    21    31    1
    34    21    32    1
    35    21    33    1
