@<TRIPOS>MOLECULE
IMPHY000187
 86 90 0 0 0
SMALL
GASTEIGER

@<TRIPOS>ATOM
      1 O           7.0628    2.5781    0.0000 O.3     1  UNL1       -0.3915
      2 O          10.5929   -0.4461    0.0000 O.3     1  UNL1       -0.3915
      3 O           2.5357   -1.9743    0.0000 O.3     1  UNL1       -0.3912
      4 O          12.4513    1.4023    0.0000 O.3     1  UNL1       -0.3888
      5 C           7.9288    0.0781    0.0000 C.3     1  UNL1       -0.0184
      6 C           7.0628   -0.4219    0.0000 C.3     1  UNL1       -0.0228
      7 C           7.9288    1.0781    0.0000 C.3     1  UNL1       -0.0032
      8 C           6.1968    0.0781    0.0000 C.3     1  UNL1       -0.0271
      9 C           8.8228    1.6127    0.0000 C.3     1  UNL1       -0.0209
     10 C           5.2868   -0.4288    0.0000 C.3     1  UNL1       -0.0252
     11 C           9.7288    1.0989    0.0000 C.3     1  UNL1       -0.0038
     12 C           7.0628    1.5781    0.0000 C.3     1  UNL1        0.0594
     13 C           8.8228   -0.4566    0.0000 C.3     1  UNL1       -0.0203
     14 C           5.2787   -1.4704    0.0000 C.3     1  UNL1       -0.0278
     15 C           6.1968    1.0781    0.0000 C.3     1  UNL1       -0.0227
     16 C           7.0789   -1.4634    0.0000 C.3     1  UNL1       -0.0466
     17 C           9.7288    0.0572    0.0000 C.3     1  UNL1        0.0594
     18 C          10.4911    1.7996    0.0000 C.3     1  UNL1       -0.0070
     19 C           9.0329    2.6266    0.0000 C.3     1  UNL1       -0.0466
     20 C           6.1808   -1.9912    0.0000 C.3     1  UNL1       -0.0486
     21 C           4.3433   -2.0201    0.0000 C.3     1  UNL1       -0.0056
     22 C           8.2709   -0.8616    0.0000 C.3     1  UNL1       -0.0586
     23 C           7.7056   -1.1880    0.0000 C.3     1  UNL1       -0.0588
     24 C           4.3599    0.1353    0.0000 C.3     1  UNL1       -0.0447
     25 C          10.0619    2.7419    0.0000 C.3     1  UNL1       -0.0468
     26 C           7.9529    2.1060    0.0000 C.3     1  UNL1       -0.0589
     27 C           5.2945    0.5712    0.0000 C.3     1  UNL1       -0.0590
     28 C           3.4037   -1.4776    0.0000 C.3     1  UNL1        0.0606
     29 C           3.4120   -0.3927    0.0000 C.3     1  UNL1       -0.0258
     30 C          11.4712    1.6010    0.0000 C.3     1  UNL1        0.0637
     31 C           3.8467   -2.8881    0.0000 C.3     1  UNL1       -0.0572
     32 C           4.8466   -2.8842    0.0000 C.3     1  UNL1       -0.0572
     33 C          11.6699    2.5810    0.0000 C.3     1  UNL1       -0.0361
     34 C          11.2725    0.6209    0.0000 C.3     1  UNL1       -0.0361
     35 H           8.6682    0.6587    0.0000 H       1  UNL1        0.0336
     36 H           6.9329    0.5031    0.0000 H       1  UNL1        0.0312
     37 H          10.5071    0.7572    0.0000 H       1  UNL1        0.0335
     38 H           7.5997    1.8881    0.0000 H       1  UNL1        0.0596
     39 H           8.4182   -0.9264    0.0000 H       1  UNL1        0.0296
     40 H           9.2164   -0.9356    0.0000 H       1  UNL1        0.0296
     41 H           5.2820   -2.3204    0.0000 H       1  UNL1        0.0312
     42 H           5.9847    1.6607    0.0000 H       1  UNL1        0.0293
     43 H           5.5862    0.9704    0.0000 H       1  UNL1        0.0293
     44 H           7.2969   -2.0438    0.0000 H       1  UNL1        0.0271
     45 H           7.6880   -1.3480    0.0000 H       1  UNL1        0.0271
     46 H          10.2664    0.3662    0.0000 H       1  UNL1        0.0596
     47 H          11.0201    2.4650    0.0000 H       1  UNL1        0.0332
     48 H           9.0290    3.2466    0.0000 H       1  UNL1        0.0271
     49 H           8.4159    2.6879    0.0000 H       1  UNL1        0.0271
     50 H           5.7835   -2.4672    0.0000 H       1  UNL1        0.0268
     51 H           6.5818   -2.4641    0.0000 H       1  UNL1        0.0268
     52 H           7.6884   -1.0737    0.0000 H       1  UNL1        0.0235
     53 H           8.4830   -1.4442    0.0000 H       1  UNL1        0.0235
     54 H           8.8535   -0.6495    0.0000 H       1  UNL1        0.0235
     55 H           7.2306   -1.5865    0.0000 H       1  UNL1        0.0235
     56 H           8.1041   -1.6629    0.0000 H       1  UNL1        0.0235
     57 H           8.1805   -0.7895    0.0000 H       1  UNL1        0.0235
     58 H           4.7681    0.6019    0.0000 H       1  UNL1        0.0271
     59 H           3.9700    0.6173    0.0000 H       1  UNL1        0.0271
     60 H          10.6500    2.9382    0.0000 H       1  UNL1        0.0269
     61 H           9.9285    3.3474    0.0000 H       1  UNL1        0.0269
     62 H           8.2588    2.6453    0.0000 H       1  UNL1        0.0235
     63 H           7.4136    2.4119    0.0000 H       1  UNL1        0.0235
     64 H           7.6471    1.5667    0.0000 H       1  UNL1        0.0235
     65 H           5.9145    0.5664    0.0000 H       1  UNL1        0.0235
     66 H           5.2993    1.1912    0.0000 H       1  UNL1        0.0235
     67 H           4.6745    0.5760    0.0000 H       1  UNL1        0.0235
     68 H           3.4025   -2.0976    0.0000 H       1  UNL1        0.0599
     69 H           3.2075    0.1926    0.0000 H       1  UNL1        0.0290
     70 H           2.8004   -0.4940    0.0000 H       1  UNL1        0.0290
     71 H           6.5259    2.8881    0.0000 H       1  UNL1        0.2098
     72 H           4.3109   -3.1963    0.0000 H       1  UNL1        0.0236
     73 H           5.1587   -3.4199    0.0000 H       1  UNL1        0.0236
     74 H           5.3824   -2.5721    0.0000 H       1  UNL1        0.0236
     75 H           3.3085   -2.5801    0.0000 H       1  UNL1        0.0236
     76 H           3.5387   -3.4262    0.0000 H       1  UNL1        0.0236
     77 H           4.3848   -3.1960    0.0000 H       1  UNL1        0.0236
     78 H          10.5905   -1.0661    0.0000 H       1  UNL1        0.2098
     79 H          12.2775    2.4578    0.0000 H       1  UNL1        0.0257
     80 H          11.7931    3.1887    0.0000 H       1  UNL1        0.0257
     81 H          11.0622    2.7042    0.0000 H       1  UNL1        0.0257
     82 H          10.6649    0.7441    0.0000 H       1  UNL1        0.0257
     83 H          11.1494    0.0132    0.0000 H       1  UNL1        0.0257
     84 H          11.8802    0.4977    0.0000 H       1  UNL1        0.0257
     85 H           2.0000   -1.6622    0.0000 H       1  UNL1        0.2098
     86 H          12.8618    1.8669    0.0000 H       1  UNL1        0.2101
@<TRIPOS>BOND
     1    12     1    1
     2     1    71    1
     3    17     2    1
     4     2    78    1
     5    28     3    1
     6     3    85    1
     7     4    30    1
     8     4    86    1
     9     5     6    1
    10     5     7    1
    11     5    13    1
    12     5    22    1
    13     6     8    1
    14     6    16    1
    15     6    23    1
    16     7     9    1
    17     7    12    1
    18     7    35    1
    19     8    10    1
    20     8    15    1
    21     8    36    1
    22     9    11    1
    23     9    19    1
    24     9    26    1
    25    10    14    1
    26    10    24    1
    27    10    27    1
    28    11    17    1
    29    11    18    1
    30    11    37    1
    31    12    15    1
    32    12    38    1
    33    13    17    1
    34    13    39    1
    35    13    40    1
    36    14    20    1
    37    14    21    1
    38    14    41    1
    39    15    42    1
    40    15    43    1
    41    16    20    1
    42    16    44    1
    43    16    45    1
    44    17    46    1
    45    18    25    1
    46    18    30    1
    47    18    47    1
    48    19    25    1
    49    19    48    1
    50    19    49    1
    51    20    50    1
    52    20    51    1
    53    21    28    1
    54    21    31    1
    55    21    32    1
    56    22    52    1
    57    22    53    1
    58    22    54    1
    59    23    55    1
    60    23    56    1
    61    23    57    1
    62    24    29    1
    63    24    58    1
    64    24    59    1
    65    25    60    1
    66    25    61    1
    67    26    62    1
    68    26    63    1
    69    26    64    1
    70    27    65    1
    71    27    66    1
    72    27    67    1
    73    28    29    1
    74    28    68    1
    75    29    69    1
    76    29    70    1
    77    30    33    1
    78    30    34    1
    79    31    75    1
    80    31    76    1
    81    31    77    1
    82    32    72    1
    83    32    73    1
    84    32    74    1
    85    33    79    1
    86    33    80    1
    87    33    81    1
    88    34    82    1
    89    34    83    1
    90    34    84    1
