@<TRIPOS>MOLECULE
IMPHY013598
 49 52 0 0 0
SMALL
GASTEIGER

@<TRIPOS>ATOM
      1 O           7.1878   -1.6016    0.0000 O.3     1  UNL1       -0.4425
      2 O           8.1058    0.9468    0.0000 O.2     1  UNL1       -0.4512
      3 O           6.3356   -0.0500    0.0000 O.3     1  UNL1       -0.4172
      4 O          10.7039   -0.5532    0.0000 O.2     1  UNL1       -0.2864
      5 O           7.2135   -3.7040    0.0000 O.3     1  UNL1       -0.5033
      6 O           9.8500    4.0161    0.0000 O.3     1  UNL1       -0.5064
      7 O           5.4523   -1.5399    0.0000 O.2     1  UNL1       -0.2507
      8 C           8.9718   -0.5532    0.0000 C.ar    1  UNL1        0.0785
      9 C           8.1058   -0.0532    0.0000 C.ar    1  UNL1        0.1975
     10 C           7.1958   -0.5600    0.0000 C.3     1  UNL1        0.3054
     11 C           8.9879   -1.5947    0.0000 C.ar    1  UNL1        0.0348
     12 C           9.8379    0.9468    0.0000 C.ar    1  UNL1        0.0651
     13 C           8.0898   -2.1224    0.0000 C.ar    1  UNL1        0.1745
     14 C           9.8379   -0.0532    0.0000 C.ar    1  UNL1        0.2008
     15 C           8.9718    1.4468    0.0000 C.ar    1  UNL1        0.1426
     16 C           9.9398   -2.1153    0.0000 C.ar    1  UNL1       -0.0501
     17 C          10.7479    1.4537    0.0000 C.ar    1  UNL1       -0.0410
     18 C           8.0815   -3.2074    0.0000 C.ar    1  UNL1        0.1592
     19 C           8.9558    2.4884    0.0000 C.ar    1  UNL1        0.0231
     20 C          10.7559    2.4953    0.0000 C.ar    1  UNL1       -0.0081
     21 C           4.6037   -0.0300    0.0000 C.3     1  UNL1        0.0450
     22 C           3.7319   -0.5199    0.0000 C.3     1  UNL1       -0.0432
     23 C           9.8538    3.0161    0.0000 C.ar    1  UNL1        0.1233
     24 C           5.4639   -0.5400    0.0000 C.2     1  UNL1        0.3103
     25 C           9.9566   -3.2002    0.0000 C.ar    1  UNL1       -0.0575
     26 C           9.0211   -3.7499    0.0000 C.ar    1  UNL1       -0.0165
     27 C           2.8718   -0.0100    0.0000 C.3     1  UNL1       -0.0554
     28 C          11.6238    2.9920    0.0000 C.3     1  UNL1       -0.0362
     29 C           2.0000   -0.4999    0.0000 C.3     1  UNL1       -0.0653
     30 H           7.2042    0.0599    0.0000 H       1  UNL1        0.1297
     31 H          10.4707   -1.7950    0.0000 H       1  UNL1        0.0625
     32 H          11.2812    1.1375    0.0000 H       1  UNL1        0.0630
     33 H           8.4153    2.7921    0.0000 H       1  UNL1        0.0691
     34 H           5.0077    0.4403    0.0000 H       1  UNL1        0.0377
     35 H           4.2107    0.4495    0.0000 H       1  UNL1        0.0377
     36 H           3.3279   -0.9902    0.0000 H       1  UNL1        0.0270
     37 H           4.1249   -0.9995    0.0000 H       1  UNL1        0.0270
     38 H          10.4970   -3.5039    0.0000 H       1  UNL1        0.0619
     39 H           3.2757    0.4603    0.0000 H       1  UNL1        0.0263
     40 H           2.4787    0.4696    0.0000 H       1  UNL1        0.0263
     41 H           9.0235   -4.3699    0.0000 H       1  UNL1        0.0655
     42 H          11.9318    2.4538    0.0000 H       1  UNL1        0.0279
     43 H          12.1620    3.2999    0.0000 H       1  UNL1        0.0279
     44 H          11.3159    3.5301    0.0000 H       1  UNL1        0.0279
     45 H           1.6962    0.0406    0.0000 H       1  UNL1        0.0230
     46 H           1.4595   -0.8037    0.0000 H       1  UNL1        0.0230
     47 H           2.3038   -1.0404    0.0000 H       1  UNL1        0.0230
     48 H           7.2112   -4.3240    0.0000 H       1  UNL1        0.2923
     49 H           9.3118    4.3240    0.0000 H       1  UNL1        0.2921
@<TRIPOS>BOND
     1     1    10    1
     2     1    13    1
     3     2     9   ar
     4     2    15   ar
     5     3    10    1
     6     3    24    1
     7     4    14    2
     8     5    18    1
     9     5    48    1
    10     6    23    1
    11     6    49    1
    12     7    24    2
    13     8     9   ar
    14     8    11    1
    15     8    14   ar
    16     9    10    1
    17    10    30    1
    18    11    13   ar
    19    11    16   ar
    20    12    14   ar
    21    12    15   ar
    22    12    17   ar
    23    13    18   ar
    24    15    19   ar
    25    16    25   ar
    26    16    31    1
    27    17    20   ar
    28    17    32    1
    29    18    26   ar
    30    19    23   ar
    31    19    33    1
    32    20    23   ar
    33    20    28    1
    34    21    22    1
    35    21    24    1
    36    21    34    1
    37    21    35    1
    38    22    27    1
    39    22    36    1
    40    22    37    1
    41    25    26   ar
    42    25    38    1
    43    26    41    1
    44    27    29    1
    45    27    39    1
    46    27    40    1
    47    28    42    1
    48    28    43    1
    49    28    44    1
    50    29    45    1
    51    29    46    1
    52    29    47    1
