@<TRIPOS>MOLECULE
IMPHY005636
 54 57 0 0 0
SMALL
GASTEIGER

@<TRIPOS>ATOM
      1 O           8.0319    1.8625    0.0000 O.3     1  UNL1       -0.3804
      2 O           4.7950    1.1062    0.0000 O.2     1  UNL1       -0.2971
      3 O           9.0465    2.4920    0.0000 O.2     1  UNL1       -0.2919
      4 O          10.8722    1.6754    0.0000 O.3     1  UNL1       -0.3874
      5 O           2.0000   -2.4462    0.0000 O.2     1  UNL1       -0.2927
      6 C           7.3931   -0.3938    0.0000 C.3     1  UNL1       -0.0286
      7 C           7.3931    0.6062    0.0000 C.3     1  UNL1        0.0134
      8 C           6.5271   -0.8938    0.0000 C.3     1  UNL1       -0.0270
      9 C           5.6610   -0.3938    0.0000 C.3     1  UNL1        0.0297
     10 C           8.3393    0.9109    0.0000 C.3     1  UNL1        0.1318
     11 C           4.7510   -0.9007    0.0000 C.3     1  UNL1       -0.0005
     12 C           8.3393   -0.6986    0.0000 C.3     1  UNL1       -0.0463
     13 C           6.5271    1.1062    0.0000 C.3     1  UNL1        0.0148
     14 C           8.9229    0.1062    0.0000 C.3     1  UNL1       -0.0162
     15 C           6.5431   -1.9353    0.0000 C.3     1  UNL1       -0.0456
     16 C           5.6610    0.6062    0.0000 C.2     1  UNL1        0.1381
     17 C           7.3931    1.6062    0.0000 C.3     1  UNL1       -0.0559
     18 C           4.7430   -1.9423    0.0000 C.2     1  UNL1       -0.0597
     19 C           5.6451   -2.4631    0.0000 C.3     1  UNL1       -0.0305
     20 C           3.8242   -0.3366    0.0000 C.3     1  UNL1       -0.0363
     21 C           4.7587    0.0993    0.0000 C.3     1  UNL1       -0.0552
     22 C           9.1493    1.4973    0.0000 C.2     1  UNL1        0.1902
     23 C           2.8763   -0.8645    0.0000 C.3     1  UNL1        0.0107
     24 C           3.8076   -2.4920    0.0000 C.2     1  UNL1       -0.0194
     25 C           2.8680   -1.9495    0.0000 C.2     1  UNL1        0.1561
     26 C          10.0622    1.0890    0.0000 C.3     1  UNL1        0.1052
     27 H           7.4830   -1.2390    0.0000 H       1  UNL1        0.0310
     28 H           7.2664   -1.3131    0.0000 H       1  UNL1        0.0311
     29 H           6.3972    0.0312    0.0000 H       1  UNL1        0.0389
     30 H           8.0883   -1.2655    0.0000 H       1  UNL1        0.0269
     31 H           8.8767   -1.0078    0.0000 H       1  UNL1        0.0269
     32 H           6.9256    1.5811    0.0000 H       1  UNL1        0.0348
     33 H           6.1285    1.5811    0.0000 H       1  UNL1        0.0348
     34 H           9.3838   -0.3086    0.0000 H       1  UNL1        0.0297
     35 H           9.3838    0.5209    0.0000 H       1  UNL1        0.0297
     36 H           6.7612   -2.5157    0.0000 H       1  UNL1        0.0271
     37 H           7.1523   -1.8198    0.0000 H       1  UNL1        0.0271
     38 H           8.0131    1.6062    0.0000 H       1  UNL1        0.0236
     39 H           7.3931    2.2262    0.0000 H       1  UNL1        0.0236
     40 H           6.7731    1.6062    0.0000 H       1  UNL1        0.0236
     41 H           5.2478   -2.9390    0.0000 H       1  UNL1        0.0310
     42 H           6.0460   -2.9360    0.0000 H       1  UNL1        0.0310
     43 H           4.2324    0.1301    0.0000 H       1  UNL1        0.0278
     44 H           3.4343    0.1455    0.0000 H       1  UNL1        0.0278
     45 H           5.3787    0.0945    0.0000 H       1  UNL1        0.0238
     46 H           4.7635    0.7193    0.0000 H       1  UNL1        0.0238
     47 H           4.1388    0.1041    0.0000 H       1  UNL1        0.0238
     48 H           8.4476    2.3225    0.0000 H       1  UNL1        0.2108
     49 H           2.6718   -0.2792    0.0000 H       1  UNL1        0.0345
     50 H           2.2647   -0.9659    0.0000 H       1  UNL1        0.0345
     51 H           3.8100   -3.1120    0.0000 H       1  UNL1        0.0652
     52 H           9.7146    0.5756    0.0000 H       1  UNL1        0.0637
     53 H          10.5074    0.6575    0.0000 H       1  UNL1        0.0637
     54 H          11.4382    1.4222    0.0000 H       1  UNL1        0.2100
@<TRIPOS>BOND
     1    10     1    1
     2     1    48    1
     3     2    16    2
     4     3    22    2
     5     4    26    1
     6     4    54    1
     7     5    25    2
     8     6     7    1
     9     6     8    1
    10     6    12    1
    11     6    27    1
    12     7    10    1
    13     7    13    1
    14     7    17    1
    15     8     9    1
    16     8    15    1
    17     8    28    1
    18     9    11    1
    19     9    16    1
    20     9    29    1
    21    10    14    1
    22    10    22    1
    23    11    18    1
    24    11    20    1
    25    11    21    1
    26    12    14    1
    27    12    30    1
    28    12    31    1
    29    13    16    1
    30    13    32    1
    31    13    33    1
    32    14    34    1
    33    14    35    1
    34    15    19    1
    35    15    36    1
    36    15    37    1
    37    17    38    1
    38    17    39    1
    39    17    40    1
    40    18    19    1
    41    18    24    2
    42    19    41    1
    43    19    42    1
    44    20    23    1
    45    20    43    1
    46    20    44    1
    47    21    45    1
    48    21    46    1
    49    21    47    1
    50    22    26    1
    51    23    25    1
    52    23    49    1
    53    23    50    1
    54    24    25    1
    55    24    51    1
    56    26    52    1
    57    26    53    1
