@<TRIPOS>MOLECULE
IMPHY001487
 44 46 0 0 0
SMALL
GASTEIGER

@<TRIPOS>ATOM
      1 O          11.6065    0.5547    0.0000 O.3     1  UNL1       -0.4526
      2 O          11.6065   -1.0547    0.0000 O.3     1  UNL1       -0.4526
      3 O           6.3301   -1.2500    0.0000 O.3     1  UNL1       -0.4942
      4 O           4.5981    1.7500    0.0000 O.3     1  UNL1       -0.4942
      5 O           2.8660   -1.2500    0.0000 O.3     1  UNL1       -0.4949
      6 O           8.0622    1.7500    0.0000 O.2     1  UNL1       -0.5061
      7 O           6.3301    1.7500    0.0000 O.2     1  UNL1       -0.2869
      8 C           8.9282    0.2500    0.0000 C.ar    1  UNL1        0.0202
      9 C          10.6603    0.2500    0.0000 C.ar    1  UNL1        0.1669
     10 C          10.6603   -0.7500    0.0000 C.ar    1  UNL1        0.1663
     11 C           5.4641    0.2500    0.0000 C.ar    1  UNL1        0.1051
     12 C           9.7942    0.7500    0.0000 C.ar    1  UNL1       -0.0055
     13 C           8.9282   -0.7500    0.0000 C.ar    1  UNL1       -0.0474
     14 C           5.4641   -0.7500    0.0000 C.ar    1  UNL1        0.1379
     15 C           4.5981    0.7500    0.0000 C.ar    1  UNL1        0.1379
     16 C           9.7942   -1.2500    0.0000 C.ar    1  UNL1       -0.0155
     17 C           8.0622    0.7500    0.0000 C.2     1  UNL1        0.1277
     18 C           6.3301    0.7500    0.0000 C.2     1  UNL1        0.1966
     19 C          12.1901   -0.2500    0.0000 C.3     1  UNL1        0.2332
     20 C           7.1962    0.2500    0.0000 C.2     1  UNL1        0.0280
     21 C           4.5981   -1.2500    0.0000 C.ar    1  UNL1        0.0227
     22 C           3.7320    0.2500    0.0000 C.ar    1  UNL1        0.0227
     23 C           3.7320   -0.7500    0.0000 C.ar    1  UNL1        0.1271
     24 C           6.3301   -2.2500    0.0000 C.3     1  UNL1        0.0788
     25 C           3.7320    2.2500    0.0000 C.3     1  UNL1        0.0788
     26 C           2.0000   -0.7500    0.0000 C.3     1  UNL1        0.0788
     27 H           9.7942    1.3700    0.0000 H       1  UNL1        0.0662
     28 H           8.3913   -1.0600    0.0000 H       1  UNL1        0.0626
     29 H           9.7942   -1.8700    0.0000 H       1  UNL1        0.0655
     30 H          12.6510   -0.6647    0.0000 H       1  UNL1        0.1166
     31 H          12.6510    0.1647    0.0000 H       1  UNL1        0.1166
     32 H           7.1962   -0.3700    0.0000 H       1  UNL1        0.0693
     33 H           4.5981   -1.8700    0.0000 H       1  UNL1        0.0691
     34 H           3.1951    0.5600    0.0000 H       1  UNL1        0.0691
     35 H           7.5252    2.0600    0.0000 H       1  UNL1        0.2922
     36 H           5.7101   -2.2500    0.0000 H       1  UNL1        0.0660
     37 H           6.3301   -2.8700    0.0000 H       1  UNL1        0.0660
     38 H           6.9501   -2.2500    0.0000 H       1  UNL1        0.0660
     39 H           4.0420    2.7869    0.0000 H       1  UNL1        0.0660
     40 H           3.1951    2.5600    0.0000 H       1  UNL1        0.0660
     41 H           3.4220    1.7131    0.0000 H       1  UNL1        0.0660
     42 H           2.3100   -0.2131    0.0000 H       1  UNL1        0.0660
     43 H           1.4631   -0.4400    0.0000 H       1  UNL1        0.0660
     44 H           1.6900   -1.2869    0.0000 H       1  UNL1        0.0660
@<TRIPOS>BOND
     1     1     9    1
     2     1    19    1
     3     2    10    1
     4     2    19    1
     5     3    14    1
     6     3    24    1
     7     4    15    1
     8     4    25    1
     9     5    23    1
    10     5    26    1
    11     6    17    1
    12     6    35    1
    13     7    18    2
    14     8    12   ar
    15     8    13   ar
    16     8    17    1
    17     9    10   ar
    18     9    12   ar
    19    10    16   ar
    20    11    14   ar
    21    11    15   ar
    22    11    18    1
    23    12    27    1
    24    13    16   ar
    25    13    28    1
    26    14    21   ar
    27    15    22   ar
    28    16    29    1
    29    17    20    2
    30    18    20    1
    31    19    30    1
    32    19    31    1
    33    20    32    1
    34    21    23   ar
    35    21    33    1
    36    22    23   ar
    37    22    34    1
    38    24    36    1
    39    24    37    1
    40    24    38    1
    41    25    39    1
    42    25    40    1
    43    25    41    1
    44    26    42    1
    45    26    43    1
    46    26    44    1
