@<TRIPOS>MOLECULE
IMPHY014174
 137 144 0 0 0
SMALL
GASTEIGER

@<TRIPOS>ATOM
      1 O           8.2902    2.6557    0.0000 O.3     1  UNL1       -0.3450
      2 O           6.7611    3.8876    0.0000 O.3     1  UNL1       -0.3642
      3 O           6.8671   -5.5884    0.0000 O.3     1  UNL1       -0.3451
      4 O           5.1350   -5.5884    0.0000 O.3     1  UNL1       -0.3405
      5 O          10.9247    5.7550    0.0000 O.3     1  UNL1       -0.3484
      6 O           6.8671   -7.5884    0.0000 O.3     1  UNL1       -0.3378
      7 O           5.1350   -8.5884    0.0000 O.3     1  UNL1       -0.3864
      8 O           3.4030   -7.5884    0.0000 O.3     1  UNL1       -0.3865
      9 O          12.4221    6.6255    0.0000 O.3     1  UNL1       -0.3405
     10 O           7.7331   -6.0884    0.0000 O.3     1  UNL1       -0.3431
     11 O           2.5369   -6.0884    0.0000 O.3     1  UNL1       -0.3924
     12 O          11.9298    4.0260    0.0000 O.3     1  UNL1       -0.3841
     13 O           8.5991   -8.5884    0.0000 O.3     1  UNL1       -0.3841
     14 O          13.9298    4.0319    0.0000 O.3     1  UNL1       -0.3864
     15 O          14.9247    5.7670    0.0000 O.3     1  UNL1       -0.3865
     16 O          10.3312   -7.5884    0.0000 O.3     1  UNL1       -0.3864
     17 O          10.3312   -5.5884    0.0000 O.3     1  UNL1       -0.3866
     18 O          13.4169    8.3605    0.0000 O.3     1  UNL1       -0.3924
     19 C           6.8963    0.6085    0.0000 C.3     1  UNL1       -0.0233
     20 C           7.7643    0.1118    0.0000 C.3     1  UNL1       -0.0295
     21 C           7.1018    1.5811    0.0000 C.3     1  UNL1       -0.0015
     22 C           7.7681   -0.8882    0.0000 C.3     1  UNL1       -0.0306
     23 C           8.0901    1.6880    0.0000 C.3     1  UNL1        0.0660
     24 C           6.9040   -1.3915    0.0000 C.3     1  UNL1       -0.0285
     25 C           8.4987    0.7817    0.0000 C.3     1  UNL1       -0.0226
     26 C           6.0322    0.1051    0.0000 C.3     1  UNL1       -0.0467
     27 C           6.6995    2.4837    0.0000 C.3     1  UNL1        0.0158
     28 C           6.0361   -0.8949    0.0000 C.3     1  UNL1       -0.0486
     29 C           6.8920   -2.4331    0.0000 C.3     1  UNL1       -0.0078
     30 C           7.4324    3.1465    0.0000 C.3     1  UNL1        0.1704
     31 C           6.0284    1.1051    0.0000 C.3     1  UNL1       -0.0590
     32 C           8.6801   -1.3915    0.0000 C.3     1  UNL1       -0.0311
     33 C           7.7920   -2.9574    0.0000 C.2     1  UNL1       -0.0648
     34 C           5.9421   -2.9574    0.0000 C.3     1  UNL1       -0.0413
     35 C           8.6921   -2.4331    0.0000 C.2     1  UNL1       -0.0839
     36 C           5.7211    2.6904    0.0000 C.3     1  UNL1       -0.0572
     37 C           6.0279   -1.9297    0.0000 C.3     1  UNL1       -0.0556
     38 C           7.9299    4.0140    0.0000 C.3     1  UNL1        0.0018
     39 C           7.8046   -4.0423    0.0000 C.3     1  UNL1       -0.0047
     40 C           5.9295   -4.0423    0.0000 C.3     1  UNL1       -0.0254
     41 C           6.8671   -4.5884    0.0000 C.3     1  UNL1        0.0655
     42 C           8.9299    4.0170    0.0000 C.3     1  UNL1       -0.0435
     43 C           9.4273    4.8845    0.0000 C.3     1  UNL1       -0.0201
     44 C           6.0010   -6.0884    0.0000 C.3     1  UNL1        0.1886
     45 C          10.4273    4.8875    0.0000 C.3     1  UNL1        0.0533
     46 C           8.9247    5.7490    0.0000 C.3     1  UNL1       -0.0603
     47 C           6.0010   -7.0884    0.0000 C.3     1  UNL1        0.1406
     48 C           5.1350   -7.5884    0.0000 C.3     1  UNL1        0.1144
     49 C           4.2690   -6.0884    0.0000 C.3     1  UNL1        0.1130
     50 C           4.2690   -7.0884    0.0000 C.3     1  UNL1        0.1119
     51 C          11.9247    5.7580    0.0000 C.3     1  UNL1        0.1879
     52 C           3.4030   -5.5884    0.0000 C.3     1  UNL1        0.0730
     53 C           7.7331   -7.0884    0.0000 C.3     1  UNL1        0.1884
     54 C          12.4273    4.8935    0.0000 C.3     1  UNL1        0.1341
     55 C           8.5991   -7.5884    0.0000 C.3     1  UNL1        0.1341
     56 C          13.4272    4.8965    0.0000 C.3     1  UNL1        0.1141
     57 C          13.4221    6.6285    0.0000 C.3     1  UNL1        0.1130
     58 C          13.9247    5.7640    0.0000 C.3     1  UNL1        0.1119
     59 C           9.4651   -7.0884    0.0000 C.3     1  UNL1        0.1140
     60 C           8.5991   -5.5884    0.0000 C.3     1  UNL1        0.0873
     61 C           9.4651   -6.0884    0.0000 C.3     1  UNL1        0.1095
     62 C          13.9195    7.4960    0.0000 C.3     1  UNL1        0.0730
     63 C           8.5991   -4.5884    0.0000 C.3     1  UNL1       -0.0361
     64 H           8.3320   -0.1374    0.0000 H       1  UNL1        0.0310
     65 H           6.4852    1.5158    0.0000 H       1  UNL1        0.0335
     66 H           8.3014   -0.5720    0.0000 H       1  UNL1        0.0310
     67 H           8.7064    1.7559    0.0000 H       1  UNL1        0.0600
     68 H           7.4398   -1.7036    0.0000 H       1  UNL1        0.0312
     69 H           8.8661    0.2823    0.0000 H       1  UNL1        0.0293
     70 H           9.0340    1.0946    0.0000 H       1  UNL1        0.0293
     71 H           5.8179    0.6869    0.0000 H       1  UNL1        0.0271
     72 H           5.4221   -0.0049    0.0000 H       1  UNL1        0.0271
     73 H           6.3097    2.0015    0.0000 H       1  UNL1        0.0354
     74 H           5.4251   -0.7895    0.0000 H       1  UNL1        0.0268
     75 H           5.8263   -1.4783    0.0000 H       1  UNL1        0.0268
     76 H           6.3363    1.6433    0.0000 H       1  UNL1        0.0235
     77 H           5.4902    1.4131    0.0000 H       1  UNL1        0.0235
     78 H           5.7204    0.5670    0.0000 H       1  UNL1        0.0235
     79 H           9.2921   -1.4905    0.0000 H       1  UNL1        0.0310
     80 H           8.8824   -0.8054    0.0000 H       1  UNL1        0.0310
     81 H           5.7398   -2.3713    0.0000 H       1  UNL1        0.0274
     82 H           5.3300   -3.0564    0.0000 H       1  UNL1        0.0274
     83 H           9.2314   -2.7389    0.0000 H       1  UNL1        0.0572
     84 H           5.8492    3.2970    0.0000 H       1  UNL1        0.0234
     85 H           5.1145    2.8185    0.0000 H       1  UNL1        0.0234
     86 H           5.5929    2.0838    0.0000 H       1  UNL1        0.0234
     87 H           6.3400   -1.3940    0.0000 H       1  UNL1        0.0238
     88 H           5.4922   -1.6177    0.0000 H       1  UNL1        0.0238
     89 H           5.7158   -2.4655    0.0000 H       1  UNL1        0.0238
     90 H           8.0357    4.6249    0.0000 H       1  UNL1        0.0317
     91 H           7.3466    4.2243    0.0000 H       1  UNL1        0.0317
     92 H           8.0204   -4.6235    0.0000 H       1  UNL1        0.0335
     93 H           8.4142   -3.9291    0.0000 H       1  UNL1        0.0335
     94 H           5.3199   -3.9291    0.0000 H       1  UNL1        0.0290
     95 H           5.7137   -4.6235    0.0000 H       1  UNL1        0.0290
     96 H           7.4046   -4.8974    0.0000 H       1  UNL1        0.0600
     97 H           6.9509    4.4778    0.0000 H       1  UNL1        0.2128
     98 H           8.8240    3.4061    0.0000 H       1  UNL1        0.0270
     99 H           9.5131    3.8067    0.0000 H       1  UNL1        0.0270
    100 H           8.8073    4.8826    0.0000 H       1  UNL1        0.0320
    101 H           6.0010   -5.4684    0.0000 H       1  UNL1        0.0938
    102 H          10.3214    4.2766    0.0000 H       1  UNL1        0.0563
    103 H          11.0105    4.6772    0.0000 H       1  UNL1        0.0563
    104 H           9.4607    6.0606    0.0000 H       1  UNL1        0.0233
    105 H           8.6131    6.2850    0.0000 H       1  UNL1        0.0233
    106 H           8.3887    5.4374    0.0000 H       1  UNL1        0.0233
    107 H           6.0010   -7.7084    0.0000 H       1  UNL1        0.0675
    108 H           4.5981   -7.8984    0.0000 H       1  UNL1        0.0648
    109 H           4.2690   -5.4684    0.0000 H       1  UNL1        0.0647
    110 H           4.2690   -7.7084    0.0000 H       1  UNL1        0.0647
    111 H          11.6131    6.2940    0.0000 H       1  UNL1        0.0937
    112 H           3.8015   -5.1134    0.0000 H       1  UNL1        0.0584
    113 H           3.0044   -5.1134    0.0000 H       1  UNL1        0.0584
    114 H           7.1962   -6.7784    0.0000 H       1  UNL1        0.0938
    115 H           4.5981   -8.8984    0.0000 H       1  UNL1        0.2100
    116 H          12.7389    4.3575    0.0000 H       1  UNL1        0.0671
    117 H           3.4030   -8.2084    0.0000 H       1  UNL1        0.2100
    118 H           8.0622   -7.8984    0.0000 H       1  UNL1        0.0671
    119 H          13.1189    4.3586    0.0000 H       1  UNL1        0.0648
    120 H          13.1105    7.1645    0.0000 H       1  UNL1        0.0647
    121 H          14.2363    5.2280    0.0000 H       1  UNL1        0.0647
    122 H           2.0000   -5.7784    0.0000 H       1  UNL1        0.2095
    123 H           9.4651   -7.7084    0.0000 H       1  UNL1        0.0648
    124 H           8.0622   -5.2784    0.0000 H       1  UNL1        0.0621
    125 H          10.0021   -6.3984    0.0000 H       1  UNL1        0.0646
    126 H          12.2414    3.4899    0.0000 H       1  UNL1        0.2101
    127 H          14.3956    7.0989    0.0000 H       1  UNL1        0.0584
    128 H          14.3932    7.8960    0.0000 H       1  UNL1        0.0584
    129 H           9.1360   -8.8984    0.0000 H       1  UNL1        0.2101
    130 H          14.5498    4.0338    0.0000 H       1  UNL1        0.2100
    131 H           9.2191   -4.5884    0.0000 H       1  UNL1        0.0255
    132 H           8.5991   -3.9684    0.0000 H       1  UNL1        0.0255
    133 H           7.9791   -4.5884    0.0000 H       1  UNL1        0.0255
    134 H          15.2330    6.3048    0.0000 H       1  UNL1        0.2100
    135 H          10.8681   -7.2784    0.0000 H       1  UNL1        0.2100
    136 H          10.8681   -5.8984    0.0000 H       1  UNL1        0.2100
    137 H          13.7253    8.8984    0.0000 H       1  UNL1        0.2095
@<TRIPOS>BOND
     1     1    23    1
     2     1    30    1
     3     2    30    1
     4     2    97    1
     5    41     3    1
     6    44     3    1
     7     4    44    1
     8     4    49    1
     9     5    45    1
    10    51     5    1
    11    47     6    1
    12    53     6    1
    13    48     7    1
    14     7   115    1
    15    50     8    1
    16     8   117    1
    17     9    51    1
    18     9    57    1
    19    10    53    1
    20    10    60    1
    21    11    52    1
    22    11   122    1
    23    54    12    1
    24    12   126    1
    25    55    13    1
    26    13   129    1
    27    56    14    1
    28    14   130    1
    29    58    15    1
    30    15   134    1
    31    59    16    1
    32    16   135    1
    33    61    17    1
    34    17   136    1
    35    18    62    1
    36    18   137    1
    37    19    20    1
    38    19    21    1
    39    19    26    1
    40    19    31    1
    41    20    22    1
    42    20    25    1
    43    20    64    1
    44    21    23    1
    45    21    27    1
    46    21    65    1
    47    22    24    1
    48    22    32    1
    49    22    66    1
    50    23    25    1
    51    23    67    1
    52    24    28    1
    53    24    29    1
    54    24    68    1
    55    25    69    1
    56    25    70    1
    57    26    28    1
    58    26    71    1
    59    26    72    1
    60    27    30    1
    61    27    36    1
    62    27    73    1
    63    28    74    1
    64    28    75    1
    65    29    33    1
    66    29    34    1
    67    29    37    1
    68    30    38    1
    69    31    76    1
    70    31    77    1
    71    31    78    1
    72    32    35    1
    73    32    79    1
    74    32    80    1
    75    33    35    2
    76    33    39    1
    77    34    40    1
    78    34    81    1
    79    34    82    1
    80    35    83    1
    81    36    84    1
    82    36    85    1
    83    36    86    1
    84    37    87    1
    85    37    88    1
    86    37    89    1
    87    38    42    1
    88    38    90    1
    89    38    91    1
    90    39    41    1
    91    39    92    1
    92    39    93    1
    93    40    41    1
    94    40    94    1
    95    40    95    1
    96    41    96    1
    97    42    43    1
    98    42    98    1
    99    42    99    1
   100    43    45    1
   101    43    46    1
   102    43   100    1
   103    44    47    1
   104    44   101    1
   105    45   102    1
   106    45   103    1
   107    46   104    1
   108    46   105    1
   109    46   106    1
   110    47    48    1
   111    47   107    1
   112    48    50    1
   113    48   108    1
   114    49    50    1
   115    49    52    1
   116    49   109    1
   117    50   110    1
   118    51    54    1
   119    51   111    1
   120    52   112    1
   121    52   113    1
   122    53    55    1
   123    53   114    1
   124    54    56    1
   125    54   116    1
   126    55    59    1
   127    55   118    1
   128    56    58    1
   129    56   119    1
   130    57    58    1
   131    57    62    1
   132    57   120    1
   133    58   121    1
   134    59    61    1
   135    59   123    1
   136    60    61    1
   137    60    63    1
   138    60   124    1
   139    61   125    1
   140    62   127    1
   141    62   128    1
   142    63   131    1
   143    63   132    1
   144    63   133    1
