@<TRIPOS>MOLECULE
IMPHY010960
 69 73 0 0 0
SMALL
GASTEIGER

@<TRIPOS>ATOM
      1 O           7.3494    0.9405    0.0000 O.3     1  UNL1       -0.3585
      2 O           7.9771   -1.9063    0.0000 O.3     1  UNL1       -0.4581
      3 O           5.3307    1.6441    0.0000 O.3     1  UNL1       -0.3888
      4 O           7.0628    2.6441    0.0000 O.3     1  UNL1       -0.3858
      5 O           9.6906    0.1796    0.0000 O.3     1  UNL1       -0.4464
      6 O           9.4288    2.0101    0.0000 O.3     1  UNL1       -0.4659
      7 O           7.9288    2.8761    0.0000 O.2     1  UNL1       -0.2475
      8 O           9.7386   -1.8589    0.0000 O.2     1  UNL1       -0.2466
      9 O           2.5357   -1.9082    0.0000 O.2     1  UNL1       -0.5034
     10 O           2.5519    0.1834    0.0000 O.2     1  UNL1       -0.2888
     11 O          10.5974   -1.2961    0.0000 O.2     1  UNL1       -0.2456
     12 C           7.0628   -0.3559    0.0000 C.3     1  UNL1        0.0468
     13 C           6.1968    0.1441    0.0000 C.3     1  UNL1        0.0055
     14 C           7.9288    0.1441    0.0000 C.3     1  UNL1        0.0603
     15 C           5.2868   -0.3628    0.0000 C.3     1  UNL1       -0.0123
     16 C           7.9288    1.1441    0.0000 C.3     1  UNL1        0.2007
     17 C           7.0789   -1.3974    0.0000 C.3     1  UNL1        0.1123
     18 C           6.1968    1.1441    0.0000 C.3     1  UNL1        0.0884
     19 C           5.2787   -1.4044    0.0000 C.3     1  UNL1       -0.0068
     20 C           6.9494    0.2477    0.0000 C.3     1  UNL1        0.0591
     21 C           7.0628    1.6441    0.0000 C.3     1  UNL1        0.1210
     22 C           6.1808   -1.9252    0.0000 C.3     1  UNL1       -0.0079
     23 C           8.8386   -0.3439    0.0000 C.3     1  UNL1        0.2059
     24 C           4.3599    0.2013    0.0000 C.3     1  UNL1        0.0198
     25 C           4.9520    0.5795    0.0000 C.3     1  UNL1       -0.0583
     26 C           4.3433   -1.9541    0.0000 C.2     1  UNL1       -0.0240
     27 C           8.4288    2.0101    0.0000 C.2     1  UNL1        0.3423
     28 C           8.8629   -1.3760    0.0000 C.2     1  UNL1        0.3491
     29 C           3.4120   -0.3266    0.0000 C.2     1  UNL1        0.1976
     30 C           3.4037   -1.4116    0.0000 C.2     1  UNL1        0.1584
     31 C           4.3472   -2.9541    0.0000 C.3     1  UNL1       -0.0397
     32 C          10.5700   -0.2965    0.0000 C.2     1  UNL1        0.3327
     33 C           9.9288    2.8761    0.0000 C.3     1  UNL1        0.0818
     34 C          11.4220    0.2271    0.0000 C.2     1  UNL1        0.0212
     35 C          12.3014   -0.2490    0.0000 C.2     1  UNL1       -0.0690
     36 C          13.1534    0.2745    0.0000 C.3     1  UNL1       -0.0435
     37 C          12.3288   -1.2486    0.0000 C.3     1  UNL1       -0.0435
     38 H           5.4606    0.5691    0.0000 H       1  UNL1        0.0339
     39 H           8.3538   -0.5920    0.0000 H       1  UNL1        0.0384
     40 H           7.0856   -2.2474    0.0000 H       1  UNL1        0.0740
     41 H           6.1968    1.7641    0.0000 H       1  UNL1        0.0623
     42 H           5.2820   -2.2544    0.0000 H       1  UNL1        0.0353
     43 H           6.5222    0.6971    0.0000 H       1  UNL1        0.0567
     44 H           6.3974   -0.0347    0.0000 H       1  UNL1        0.0567
     45 H           7.5997    1.9541    0.0000 H       1  UNL1        0.0654
     46 H           5.7835   -2.4012    0.0000 H       1  UNL1        0.0307
     47 H           6.5818   -2.3981    0.0000 H       1  UNL1        0.0307
     48 H           9.3833   -0.6402    0.0000 H       1  UNL1        0.0857
     49 H           4.7681    0.6680    0.0000 H       1  UNL1        0.0352
     50 H           3.9700    0.6834    0.0000 H       1  UNL1        0.0352
     51 H           5.5362    0.7871    0.0000 H       1  UNL1        0.0235
     52 H           4.7444    1.1638    0.0000 H       1  UNL1        0.0235
     53 H           4.3678    0.3720    0.0000 H       1  UNL1        0.0235
     54 H           5.3307    2.2641    0.0000 H       1  UNL1        0.2099
     55 H           6.5259    2.9541    0.0000 H       1  UNL1        0.2100
     56 H           3.7272   -2.9565    0.0000 H       1  UNL1        0.0276
     57 H           4.3496   -3.5741    0.0000 H       1  UNL1        0.0276
     58 H           4.9672   -2.9517    0.0000 H       1  UNL1        0.0276
     59 H           2.0000   -1.5962    0.0000 H       1  UNL1        0.2923
     60 H          10.4658    2.5661    0.0000 H       1  UNL1        0.0661
     61 H          10.2388    3.4131    0.0000 H       1  UNL1        0.0661
     62 H           9.3919    3.1861    0.0000 H       1  UNL1        0.0661
     63 H          11.4050    0.8468    0.0000 H       1  UNL1        0.0688
     64 H          13.4780   -0.2537    0.0000 H       1  UNL1        0.0274
     65 H          13.6816    0.5991    0.0000 H       1  UNL1        0.0274
     66 H          12.8288    0.8028    0.0000 H       1  UNL1        0.0274
     67 H          11.7090   -1.2656    0.0000 H       1  UNL1        0.0274
     68 H          12.3458   -1.8684    0.0000 H       1  UNL1        0.0274
     69 H          12.9486   -1.2317    0.0000 H       1  UNL1        0.0274
@<TRIPOS>BOND
     1     1    16    1
     2     1    20    1
     3     2    17    1
     4     2    28    1
     5    18     3    1
     6     3    54    1
     7    21     4    1
     8     4    55    1
     9    23     5    1
    10     5    32    1
    11     6    27    1
    12     6    33    1
    13     7    27    2
    14     8    28    2
    15     9    30    1
    16     9    59    1
    17    10    29    2
    18    11    32    2
    19    12    13    1
    20    12    14    1
    21    12    17    1
    22    12    20    1
    23    13    15    1
    24    13    18    1
    25    13    38    1
    26    14    16    1
    27    14    23    1
    28    14    39    1
    29    15    19    1
    30    15    24    1
    31    15    25    1
    32    16    21    1
    33    16    27    1
    34    17    22    1
    35    17    40    1
    36    18    21    1
    37    18    41    1
    38    19    22    1
    39    19    26    1
    40    19    42    1
    41    20    43    1
    42    20    44    1
    43    21    45    1
    44    22    46    1
    45    22    47    1
    46    23    28    1
    47    23    48    1
    48    24    29    1
    49    24    49    1
    50    24    50    1
    51    25    51    1
    52    25    52    1
    53    25    53    1
    54    26    30    2
    55    26    31    1
    56    29    30    1
    57    31    56    1
    58    31    57    1
    59    31    58    1
    60    32    34    1
    61    33    60    1
    62    33    61    1
    63    33    62    1
    64    34    35    2
    65    34    63    1
    66    35    36    1
    67    35    37    1
    68    36    64    1
    69    36    65    1
    70    36    66    1
    71    37    67    1
    72    37    68    1
    73    37    69    1
