@<TRIPOS>MOLECULE
IMPHY004165
 38 39 0 0 0
SMALL
GASTEIGER

@<TRIPOS>ATOM
      1 O           4.2690    0.1550    0.0000 O.3     1  UNL1       -0.3405
      2 O           6.0010    0.1550    0.0000 O.3     1  UNL1       -0.3262
      3 O           4.2690   -2.8450    0.0000 O.3     1  UNL1       -0.3864
      4 O           2.5369   -1.8450    0.0000 O.3     1  UNL1       -0.3865
      5 O           6.0010   -1.8450    0.0000 O.3     1  UNL1       -0.3841
      6 O           2.5369    1.1550    0.0000 O.3     1  UNL1       -0.3924
      7 N           4.2690    2.1550    0.0000 N.1     1  UNL1       -0.1935
      8 C           4.2690   -1.8450    0.0000 C.3     1  UNL1        0.1141
      9 C           3.4030   -1.3450    0.0000 C.3     1  UNL1        0.1119
     10 C           5.1350   -1.3450    0.0000 C.3     1  UNL1        0.1342
     11 C           3.4030   -0.3450    0.0000 C.3     1  UNL1        0.1130
     12 C           5.1350   -0.3450    0.0000 C.3     1  UNL1        0.1899
     13 C           2.5369    0.1550    0.0000 C.3     1  UNL1        0.0730
     14 C           6.0010    1.1550    0.0000 C.3     1  UNL1        0.1722
     15 C           6.8671    1.6550    0.0000 C.ar    1  UNL1       -0.0049
     16 C           5.1350    1.6550    0.0000 C.1     1  UNL1        0.0992
     17 C           7.7331    1.1550    0.0000 C.ar    1  UNL1       -0.0551
     18 C           6.8671    2.6550    0.0000 C.ar    1  UNL1       -0.0551
     19 C           8.5991    1.6550    0.0000 C.ar    1  UNL1       -0.0614
     20 C           7.7331    3.1550    0.0000 C.ar    1  UNL1       -0.0614
     21 C           8.5991    2.6550    0.0000 C.ar    1  UNL1       -0.0617
     22 H           4.8059   -2.1550    0.0000 H       1  UNL1        0.0648
     23 H           3.4030   -1.9650    0.0000 H       1  UNL1        0.0647
     24 H           5.6720   -1.0350    0.0000 H       1  UNL1        0.0671
     25 H           3.4030    0.2750    0.0000 H       1  UNL1        0.0647
     26 H           5.1350    0.2750    0.0000 H       1  UNL1        0.0938
     27 H           1.9264    0.2627    0.0000 H       1  UNL1        0.0584
     28 H           2.3249   -0.4276    0.0000 H       1  UNL1        0.0584
     29 H           3.7320   -3.1550    0.0000 H       1  UNL1        0.2100
     30 H           2.0000   -1.5350    0.0000 H       1  UNL1        0.2100
     31 H           6.5380   -1.5350    0.0000 H       1  UNL1        0.2101
     32 H           6.5380    0.8450    0.0000 H       1  UNL1        0.0808
     33 H           2.0000    1.4650    0.0000 H       1  UNL1        0.2095
     34 H           7.7331    0.5350    0.0000 H       1  UNL1        0.0621
     35 H           6.3301    2.9650    0.0000 H       1  UNL1        0.0621
     36 H           9.1360    1.3450    0.0000 H       1  UNL1        0.0618
     37 H           7.7331    3.7750    0.0000 H       1  UNL1        0.0618
     38 H           9.1360    2.9650    0.0000 H       1  UNL1        0.0618
@<TRIPOS>BOND
     1     1    11    1
     2     1    12    1
     3    12     2    1
     4    14     2    1
     5     8     3    1
     6     3    29    1
     7     9     4    1
     8     4    30    1
     9    10     5    1
    10     5    31    1
    11     6    13    1
    12     6    33    1
    13     7    16    3
    14     8     9    1
    15     8    10    1
    16     8    22    1
    17     9    11    1
    18     9    23    1
    19    10    12    1
    20    10    24    1
    21    11    13    1
    22    11    25    1
    23    12    26    1
    24    13    27    1
    25    13    28    1
    26    14    15    1
    27    14    16    1
    28    14    32    1
    29    15    17   ar
    30    15    18   ar
    31    17    19   ar
    32    17    34    1
    33    18    20   ar
    34    18    35    1
    35    19    21   ar
    36    19    36    1
    37    20    21   ar
    38    20    37    1
    39    21    38    1
