@<TRIPOS>MOLECULE
IMPHY001851
 43 43 0 0 0
SMALL
GASTEIGER

@<TRIPOS>ATOM
      1 O           9.4323   -0.4076    0.0000 O.3     1  UNL1       -0.3657
      2 O           7.1370    1.5184    0.0000 O.2     1  UNL1       -0.2923
      3 O           3.3328    0.2823    0.0000 O.3     1  UNL1       -0.2272
      4 O           2.5896    0.9515    0.0000 O.3     1  UNL1       -0.2493
      5 C           8.6233    0.1801    0.0000 C.3     1  UNL1        0.0694
      6 C          10.2413    0.1801    0.0000 C.3     1  UNL1        0.0850
      7 C           8.9323    1.1312    0.0000 C.3     1  UNL1       -0.0230
      8 C           9.9323    1.1312    0.0000 C.3     1  UNL1       -0.0180
      9 C           7.6723   -0.1289    0.0000 C.3     1  UNL1        0.0449
     10 C          11.1924    0.4892    0.0000 C.3     1  UNL1       -0.0322
     11 C          10.8291   -0.6289    0.0000 C.2     1  UNL1       -0.0600
     12 C           7.4644   -1.1070    0.0000 C.3     1  UNL1       -0.0530
     13 C           6.9291    0.5403    0.0000 C.2     1  UNL1        0.1611
     14 C           5.9781    0.2312    0.0000 C.2     1  UNL1       -0.0200
     15 C          10.4224   -1.5424    0.0000 C.2     1  UNL1       -0.1000
     16 C           4.2839    0.5914    0.0000 C.3     1  UNL1        0.1171
     17 C           5.2349    0.9004    0.0000 C.2     1  UNL1       -0.0468
     18 C           3.9748    1.5424    0.0000 C.3     1  UNL1       -0.0294
     19 C           4.5929   -0.3597    0.0000 C.3     1  UNL1       -0.0294
     20 H           8.5263   -0.4322    0.0000 H       1  UNL1        0.0603
     21 H           8.9971    1.7478    0.0000 H       1  UNL1        0.0291
     22 H           8.3259    1.2601    0.0000 H       1  UNL1        0.0291
     23 H          10.5388    1.2601    0.0000 H       1  UNL1        0.0297
     24 H           9.8675    1.7478    0.0000 H       1  UNL1        0.0297
     25 H           7.0826   -0.3205    0.0000 H       1  UNL1        0.0403
     26 H          11.3840   -0.1005    0.0000 H       1  UNL1        0.0260
     27 H          11.7821    0.6808    0.0000 H       1  UNL1        0.0260
     28 H          11.0008    1.0788    0.0000 H       1  UNL1        0.0260
     29 H          11.4457   -0.5641    0.0000 H       1  UNL1        0.0594
     30 H           6.8579   -0.9781    0.0000 H       1  UNL1        0.0237
     31 H           7.3354   -1.7135    0.0000 H       1  UNL1        0.0237
     32 H           8.0708   -1.2359    0.0000 H       1  UNL1        0.0237
     33 H           5.8492   -0.3752    0.0000 H       1  UNL1        0.0650
     34 H           9.8058   -1.6072    0.0000 H       1  UNL1        0.0533
     35 H          10.7868   -2.0440    0.0000 H       1  UNL1        0.0533
     36 H           5.3638    1.5068    0.0000 H       1  UNL1        0.0602
     37 H           4.5645    1.7340    0.0000 H       1  UNL1        0.0261
     38 H           3.7832    2.1321    0.0000 H       1  UNL1        0.0261
     39 H           3.3852    1.3508    0.0000 H       1  UNL1        0.0261
     40 H           4.0032   -0.5513    0.0000 H       1  UNL1        0.0261
     41 H           4.7845   -0.9494    0.0000 H       1  UNL1        0.0261
     42 H           5.1825   -0.1681    0.0000 H       1  UNL1        0.0261
     43 H           2.0000    0.7599    0.0000 H       1  UNL1        0.2531
@<TRIPOS>BOND
     1     1     5    1
     2     1     6    1
     3     2    13    2
     4     3     4    1
     5     3    16    1
     6     4    43    1
     7     5     7    1
     8     5     9    1
     9     5    20    1
    10     6     8    1
    11     6    10    1
    12     6    11    1
    13     7     8    1
    14     7    21    1
    15     7    22    1
    16     8    23    1
    17     8    24    1
    18     9    12    1
    19     9    13    1
    20     9    25    1
    21    10    26    1
    22    10    27    1
    23    10    28    1
    24    11    15    2
    25    11    29    1
    26    12    30    1
    27    12    31    1
    28    12    32    1
    29    13    14    1
    30    14    17    2
    31    14    33    1
    32    15    34    1
    33    15    35    1
    34    16    17    1
    35    16    18    1
    36    16    19    1
    37    17    36    1
    38    18    37    1
    39    18    38    1
    40    18    39    1
    41    19    40    1
    42    19    41    1
    43    19    42    1
