@<TRIPOS>MOLECULE
IMPHY013381
 101 106 0 0 0
SMALL
GASTEIGER

@<TRIPOS>ATOM
      1 O           8.5991   -1.2393    0.0000 O.3     1  UNL1       -0.3302
      2 O          14.6720   -1.7549    0.0000 O.3     1  UNL1       -0.3302
      3 O          10.3312   -1.2393    0.0000 O.3     1  UNL1       -0.4598
      4 O          13.8233   -0.2450    0.0000 O.3     1  UNL1       -0.4515
      5 O           6.8671   -3.2393    0.0000 O.3     1  UNL1       -0.3864
      6 O          13.7771   -4.2447    0.0000 O.3     1  UNL1       -0.3864
      7 O           8.5991   -4.2393    0.0000 O.3     1  UNL1       -0.3864
      8 O          12.0567   -3.2247    0.0000 O.3     1  UNL1       -0.3864
      9 O          10.3312   -3.2393    0.0000 O.3     1  UNL1       -0.3829
     10 O          12.0799   -1.2249    0.0000 O.3     1  UNL1       -0.3829
     11 O           6.0010   -1.7393    0.0000 O.3     1  UNL1       -0.4616
     12 O          16.3923   -2.7748    0.0000 O.3     1  UNL1       -0.4589
     13 O          12.1145    1.7749    0.0000 O.2     1  UNL1       -0.1997
     14 O           8.5849    1.8399    0.0000 O.3     1  UNL1       -0.5063
     15 O           5.1350   -0.2393    0.0000 O.2     1  UNL1       -0.2502
     16 O          17.2410   -4.2848    0.0000 O.2     1  UNL1       -0.2456
     17 O          14.7414    4.2447    0.0000 O.3     1  UNL1       -0.5032
     18 O          16.4386    1.2249    0.0000 O.3     1  UNL1       -0.5032
     19 O          16.4617    3.2247    0.0000 O.3     1  UNL1       -0.5009
     20 O           2.5369   -1.7393    0.0000 O.3     1  UNL1       -0.4802
     21 O           3.4030   -0.2393    0.0000 O.2     1  UNL1       -0.2504
     22 O          22.4483   -3.3449    0.0000 O.3     1  UNL1       -0.5033
     23 O          22.4715   -1.3450    0.0000 O.3     1  UNL1       -0.5033
     24 C           7.7331   -2.7393    0.0000 C.3     1  UNL1        0.1130
     25 C          13.7887   -3.2448    0.0000 C.3     1  UNL1        0.1130
     26 C           8.5991   -3.2393    0.0000 C.3     1  UNL1        0.1152
     27 C          12.9285   -2.7348    0.0000 C.3     1  UNL1        0.1152
     28 C           7.7331   -1.7393    0.0000 C.3     1  UNL1        0.1250
     29 C          14.6604   -2.7548    0.0000 C.3     1  UNL1        0.1250
     30 C           9.4651   -2.7393    0.0000 C.3     1  UNL1        0.1454
     31 C          12.9400   -1.7349    0.0000 C.3     1  UNL1        0.1454
     32 C           9.4651   -1.7393    0.0000 C.3     1  UNL1        0.2309
     33 C          13.8118   -1.2449    0.0000 C.3     1  UNL1        0.2313
     34 C           6.8671   -1.2393    0.0000 C.3     1  UNL1        0.1212
     35 C          15.5206   -3.2648    0.0000 C.3     1  UNL1        0.1215
     36 C          10.3312   -0.2393    0.0000 C.ar    1  UNL1        0.1437
     37 C          12.9632    0.2650    0.0000 C.ar    1  UNL1        0.2288
     38 C          11.2312    0.2850    0.0000 C.ar    1  UNL1        0.1245
     39 C          12.0914   -0.2249    0.0000 C.ar    1  UNL1        0.0093
     40 C          12.9747    1.2649    0.0000 C.ar    1  UNL1        0.4047
     41 C          11.2428    1.2850    0.0000 C.ar    1  UNL1        0.3708
     42 C           9.4311    0.2850    0.0000 C.ar    1  UNL1        0.0229
     43 C          10.3551    1.8299    0.0000 C.ar    1  UNL1        0.0847
     44 C           9.4431    1.3266    0.0000 C.ar    1  UNL1        0.1293
     45 C          13.8465    1.7549    0.0000 C.ar    1  UNL1        0.0899
     46 C           5.1350   -1.2393    0.0000 C.2     1  UNL1        0.3180
     47 C          17.2525   -3.2848    0.0000 C.2     1  UNL1        0.3320
     48 C           4.2690   -1.7393    0.0000 C.3     1  UNL1        0.1418
     49 C          14.7067    1.2449    0.0000 C.ar    1  UNL1       -0.0000
     50 C          13.8580    2.7548    0.0000 C.ar    1  UNL1       -0.0000
     51 C          18.1243   -2.7949    0.0000 C.2     1  UNL1        0.0231
     52 C          14.7298    3.2448    0.0000 C.ar    1  UNL1        0.1628
     53 C          15.5784    1.7349    0.0000 C.ar    1  UNL1        0.1628
     54 C          15.5900    2.7348    0.0000 C.ar    1  UNL1        0.2006
     55 C           3.4030   -1.2393    0.0000 C.2     1  UNL1        0.3155
     56 C          18.9845   -3.3049    0.0000 C.2     1  UNL1       -0.0477
     57 C          19.8562   -2.8149    0.0000 C.ar    1  UNL1       -0.0211
     58 C          20.7164   -3.3249    0.0000 C.ar    1  UNL1       -0.0094
     59 C          19.8678   -1.8150    0.0000 C.ar    1  UNL1       -0.0509
     60 C          21.5882   -2.8349    0.0000 C.ar    1  UNL1        0.1588
     61 C          20.7395   -1.3250    0.0000 C.ar    1  UNL1       -0.0160
     62 C          21.5997   -1.8350    0.0000 C.ar    1  UNL1        0.1582
     63 H           7.7331   -3.3593    0.0000 H       1  UNL1        0.0647
     64 H          14.3220   -3.5610    0.0000 H       1  UNL1        0.0647
     65 H           9.1360   -3.5493    0.0000 H       1  UNL1        0.0648
     66 H          13.4690   -2.4310    0.0000 H       1  UNL1        0.0648
     67 H           7.7331   -1.1193    0.0000 H       1  UNL1        0.0658
     68 H          15.2009   -2.4510    0.0000 H       1  UNL1        0.0658
     69 H           9.4651   -3.3593    0.0000 H       1  UNL1        0.0683
     70 H          12.3996   -2.0386    0.0000 H       1  UNL1        0.0683
     71 H          10.0021   -2.0493    0.0000 H       1  UNL1        0.1084
     72 H          13.2785   -0.9287    0.0000 H       1  UNL1        0.1084
     73 H           7.2656   -0.7643    0.0000 H       1  UNL1        0.0724
     74 H           6.4685   -0.7643    0.0000 H       1  UNL1        0.0724
     75 H          15.1166   -3.7351    0.0000 H       1  UNL1        0.0725
     76 H          15.9136   -3.7443    0.0000 H       1  UNL1        0.0725
     77 H           6.8671   -3.8593    0.0000 H       1  UNL1        0.2100
     78 H          14.3104   -4.5609    0.0000 H       1  UNL1        0.2100
     79 H           8.0622   -4.5493    0.0000 H       1  UNL1        0.2100
     80 H          12.0496   -3.8447    0.0000 H       1  UNL1        0.2100
     81 H          10.3312   -3.8593    0.0000 H       1  UNL1        0.2102
     82 H          11.5394   -1.5286    0.0000 H       1  UNL1        0.2102
     83 H          12.0842   -0.8449    0.0000 H       1  UNL1        0.0667
     84 H           8.8918   -0.0208    0.0000 H       1  UNL1        0.0691
     85 H          10.3694    2.4498    0.0000 H       1  UNL1        0.0749
     86 H           3.8705   -2.2142    0.0000 H       1  UNL1        0.0493
     87 H           4.6675   -2.2142    0.0000 H       1  UNL1        0.0493
     88 H          14.6995    0.6250    0.0000 H       1  UNL1        0.0664
     89 H          13.3247    3.0710    0.0000 H       1  UNL1        0.0664
     90 H          18.1314   -2.1749    0.0000 H       1  UNL1        0.0689
     91 H           8.5945    2.4598    0.0000 H       1  UNL1        0.2921
     92 H          18.9773   -3.9248    0.0000 H       1  UNL1        0.0626
     93 H          14.2080    4.5609    0.0000 H       1  UNL1        0.2923
     94 H          16.9791    1.5286    0.0000 H       1  UNL1        0.2923
     95 H          16.4689    3.8447    0.0000 H       1  UNL1        0.2924
     96 H           2.0000   -1.4293    0.0000 H       1  UNL1        0.2951
     97 H          20.7092   -3.9448    0.0000 H       1  UNL1        0.0661
     98 H          19.3345   -1.4988    0.0000 H       1  UNL1        0.0625
     99 H          20.7467   -0.7051    0.0000 H       1  UNL1        0.0655
    100 H          22.4412   -3.9649    0.0000 H       1  UNL1        0.2923
    101 H          22.4786   -0.7251    0.0000 H       1  UNL1        0.2923
@<TRIPOS>UNITY_ATOM_ATTR
13 1
charge 1
@<TRIPOS>BOND
     1     1    28    1
     2     1    32    1
     3     2    29    1
     4     2    33    1
     5    32     3    1
     6     3    36    1
     7    33     4    1
     8     4    37    1
     9    24     5    1
    10     5    77    1
    11    25     6    1
    12     6    78    1
    13    26     7    1
    14     7    79    1
    15     8    27    1
    16     8    80    1
    17     9    30    1
    18     9    81    1
    19    10    31    1
    20    10    82    1
    21    11    34    1
    22    11    46    1
    23    12    35    1
    24    12    47    1
    25    13    40   ar
    26    13    41   ar
    27    14    44    1
    28    14    91    1
    29    15    46    2
    30    16    47    2
    31    17    52    1
    32    17    93    1
    33    18    53    1
    34    18    94    1
    35    19    54    1
    36    19    95    1
    37    20    55    1
    38    20    96    1
    39    21    55    2
    40    22    60    1
    41    22   100    1
    42    23    62    1
    43    23   101    1
    44    24    26    1
    45    24    28    1
    46    24    63    1
    47    25    27    1
    48    25    29    1
    49    25    64    1
    50    26    30    1
    51    26    65    1
    52    27    31    1
    53    27    66    1
    54    28    34    1
    55    28    67    1
    56    29    35    1
    57    29    68    1
    58    30    32    1
    59    30    69    1
    60    31    33    1
    61    31    70    1
    62    32    71    1
    63    33    72    1
    64    34    73    1
    65    34    74    1
    66    35    75    1
    67    35    76    1
    68    36    38   ar
    69    36    42   ar
    70    37    39   ar
    71    37    40   ar
    72    38    39   ar
    73    38    41   ar
    74    39    83    1
    75    40    45    1
    76    41    43   ar
    77    42    44   ar
    78    42    84    1
    79    43    44   ar
    80    43    85    1
    81    45    49   ar
    82    45    50   ar
    83    46    48    1
    84    47    51    1
    85    48    55    1
    86    48    86    1
    87    48    87    1
    88    49    53   ar
    89    49    88    1
    90    50    52   ar
    91    50    89    1
    92    51    56    2
    93    51    90    1
    94    52    54   ar
    95    53    54   ar
    96    56    57    1
    97    56    92    1
    98    57    58   ar
    99    57    59   ar
   100    58    60   ar
   101    58    97    1
   102    59    61   ar
   103    59    98    1
   104    60    62   ar
   105    61    62   ar
   106    61    99    1
