@<TRIPOS>MOLECULE
IMPHY010244
 39 41 0 0 0
SMALL
GASTEIGER

@<TRIPOS>ATOM
      1 C           4.4192   -1.1955    0.0000 C.3     1  UNL1       -0.0071
      2 C           3.4954   -0.8129    0.0000 C.3     1  UNL1       -0.0233
      3 C           4.4192    1.4176    0.0000 C.3     1  UNL1       -0.0312
      4 C           4.0532    0.1110    0.0000 C.3     1  UNL1       -0.0382
      5 C           2.8517   -1.5704    0.0000 C.3     1  UNL1       -0.0133
      6 C           3.1127    0.1110    0.0000 C.3     1  UNL1       -0.0482
      7 C           5.3431   -0.8129    0.0000 C.3     1  UNL1       -0.0436
      8 C           3.4954    1.0349    0.0000 C.3     1  UNL1       -0.0473
      9 C           5.3431    1.0349    0.0000 C.3     1  UNL1       -0.0476
     10 C           5.7258    0.1110    0.0000 C.3     1  UNL1       -0.0518
     11 C           4.3387   -2.1864    0.0000 C.2     1  UNL1       -0.0809
     12 C           3.3719   -2.4176    0.0000 C.2     1  UNL1       -0.0814
     13 C           4.4192    2.4176    0.0000 C.3     1  UNL1       -0.0595
     14 C           2.0000   -2.0944    0.0000 C.3     1  UNL1       -0.0561
     15 C           2.0902   -0.9223    0.0000 C.3     1  UNL1       -0.0561
     16 H           2.7101   -0.4876    0.0000 H       1  UNL1        0.0317
     17 H           3.5467    0.4686    0.0000 H       1  UNL1        0.0279
     18 H           4.6732    0.1110    0.0000 H       1  UNL1        0.0279
     19 H           2.6208    0.4884    0.0000 H       1  UNL1        0.0269
     20 H           2.6208   -0.2664    0.0000 H       1  UNL1        0.0269
     21 H           5.4241   -1.4276    0.0000 H       1  UNL1        0.0274
     22 H           5.9578   -0.8938    0.0000 H       1  UNL1        0.0274
     23 H           3.4144    1.6496    0.0000 H       1  UNL1        0.0271
     24 H           2.8807    1.1158    0.0000 H       1  UNL1        0.0271
     25 H           5.9578    1.1158    0.0000 H       1  UNL1        0.0271
     26 H           5.4241    1.6496    0.0000 H       1  UNL1        0.0271
     27 H           6.2177   -0.2664    0.0000 H       1  UNL1        0.0266
     28 H           6.2177    0.4884    0.0000 H       1  UNL1        0.0266
     29 H           4.8094   -2.5898    0.0000 H       1  UNL1        0.0575
     30 H           3.1346   -2.9904    0.0000 H       1  UNL1        0.0575
     31 H           5.0392    2.4176    0.0000 H       1  UNL1        0.0235
     32 H           4.4192    3.0376    0.0000 H       1  UNL1        0.0235
     33 H           3.7992    2.4176    0.0000 H       1  UNL1        0.0235
     34 H           2.4920   -0.4502    0.0000 H       1  UNL1        0.0238
     35 H           1.6751   -1.5663    0.0000 H       1  UNL1        0.0238
     36 H           1.4719   -2.4193    0.0000 H       1  UNL1        0.0238
     37 H           2.3249   -2.6225    0.0000 H       1  UNL1        0.0238
     38 H           1.6181   -0.5205    0.0000 H       1  UNL1        0.0238
     39 H           1.6884   -1.3945    0.0000 H       1  UNL1        0.0238
@<TRIPOS>BOND
     1     1     2    1
     2     1     4    1
     3     1     7    1
     4     1    11    1
     5     2     5    1
     6     2     6    1
     7     2    16    1
     8     3     4    1
     9     3     8    1
    10     3     9    1
    11     3    13    1
    12     4    17    1
    13     4    18    1
    14     5    12    1
    15     5    14    1
    16     5    15    1
    17     6     8    1
    18     6    19    1
    19     6    20    1
    20     7    10    1
    21     7    21    1
    22     7    22    1
    23     8    23    1
    24     8    24    1
    25     9    10    1
    26     9    25    1
    27     9    26    1
    28    10    27    1
    29    10    28    1
    30    11    12    2
    31    11    29    1
    32    12    30    1
    33    13    31    1
    34    13    32    1
    35    13    33    1
    36    14    35    1
    37    14    36    1
    38    14    37    1
    39    15    34    1
    40    15    38    1
    41    15    39    1
