@<TRIPOS>MOLECULE
IMPHY006419
 21 20 0 0 0
SMALL
GASTEIGER

@<TRIPOS>ATOM
      1 O           6.3301   -1.0600    0.0000 O.2     1  UNL1       -0.2930
      2 C           2.8660   -0.0600    0.0000 C.2     1  UNL1       -0.0757
      3 C           3.7320    0.4400    0.0000 C.2     1  UNL1       -0.0629
      4 C           2.0000    0.4400    0.0000 C.3     1  UNL1       -0.0438
      5 C           2.8660   -1.0600    0.0000 C.3     1  UNL1       -0.0438
      6 C           4.5981   -0.0600    0.0000 C.2     1  UNL1       -0.0585
      7 C           5.4641    0.4400    0.0000 C.2     1  UNL1       -0.0195
      8 C           6.3301   -0.0600    0.0000 C.2     1  UNL1        0.1530
      9 C           7.1962    0.4400    0.0000 C.3     1  UNL1       -0.0020
     10 H           3.7320    1.0600    0.0000 H       1  UNL1        0.0617
     11 H           2.2460   -1.0600    0.0000 H       1  UNL1        0.0274
     12 H           2.8660   -1.6800    0.0000 H       1  UNL1        0.0274
     13 H           3.4860   -1.0600    0.0000 H       1  UNL1        0.0274
     14 H           2.3100    0.9769    0.0000 H       1  UNL1        0.0274
     15 H           1.4631    0.7500    0.0000 H       1  UNL1        0.0274
     16 H           1.6900   -0.0969    0.0000 H       1  UNL1        0.0274
     17 H           4.5981   -0.6800    0.0000 H       1  UNL1        0.0619
     18 H           5.4641    1.0600    0.0000 H       1  UNL1        0.0652
     19 H           7.5062   -0.0969    0.0000 H       1  UNL1        0.0309
     20 H           7.7331    0.7500    0.0000 H       1  UNL1        0.0309
     21 H           6.8862    0.9769    0.0000 H       1  UNL1        0.0309
@<TRIPOS>BOND
     1     1     8    2
     2     2     3    2
     3     2     4    1
     4     2     5    1
     5     3     6    1
     6     3    10    1
     7     4    14    1
     8     4    15    1
     9     4    16    1
    10     5    11    1
    11     5    12    1
    12     5    13    1
    13     6     7    2
    14     6    17    1
    15     7     8    1
    16     7    18    1
    17     8     9    1
    18     9    19    1
    19     9    20    1
    20     9    21    1
