@<TRIPOS>MOLECULE
IMPHY014052
 78 77 0 0 0
SMALL
GASTEIGER

@<TRIPOS>ATOM
      1 O          10.6603   -0.5950    0.0000 O.3     1  UNL1       -0.3918
      2 O          23.6506    0.9050    0.0000 O.3     1  UNL1       -0.4806
      3 O          22.7846   -0.5950    0.0000 O.2     1  UNL1       -0.2510
      4 C          10.6603    0.4050    0.0000 C.3     1  UNL1        0.0553
      5 C          11.5263    0.9050    0.0000 C.3     1  UNL1       -0.0269
      6 C          12.3923    0.4050    0.0000 C.3     1  UNL1       -0.0507
      7 C           9.7942    0.9050    0.0000 C.3     1  UNL1       -0.0269
      8 C          13.2583    0.9050    0.0000 C.3     1  UNL1       -0.0530
      9 C           8.9282    0.4050    0.0000 C.3     1  UNL1       -0.0507
     10 C          14.1244    0.4050    0.0000 C.3     1  UNL1       -0.0531
     11 C          14.9904    0.9050    0.0000 C.3     1  UNL1       -0.0531
     12 C           8.0622    0.9050    0.0000 C.3     1  UNL1       -0.0530
     13 C          15.8564    0.4050    0.0000 C.3     1  UNL1       -0.0531
     14 C           7.1962    0.4050    0.0000 C.3     1  UNL1       -0.0531
     15 C          16.7224    0.9050    0.0000 C.3     1  UNL1       -0.0531
     16 C          17.5885    0.4050    0.0000 C.3     1  UNL1       -0.0531
     17 C           6.3301    0.9050    0.0000 C.3     1  UNL1       -0.0531
     18 C          18.4545    0.9050    0.0000 C.3     1  UNL1       -0.0531
     19 C           5.4641    0.4050    0.0000 C.3     1  UNL1       -0.0531
     20 C          19.3205    0.4050    0.0000 C.3     1  UNL1       -0.0530
     21 C           4.5981    0.9050    0.0000 C.3     1  UNL1       -0.0531
     22 C          20.1865    0.9050    0.0000 C.3     1  UNL1       -0.0526
     23 C           3.7320    0.4050    0.0000 C.3     1  UNL1       -0.0533
     24 C          21.0526    0.4050    0.0000 C.3     1  UNL1       -0.0430
     25 C           2.8660    0.9050    0.0000 C.3     1  UNL1       -0.0559
     26 C          21.9186    0.9050    0.0000 C.3     1  UNL1        0.0448
     27 C           2.0000    0.4050    0.0000 C.3     1  UNL1       -0.0653
     28 C          22.7846    0.4050    0.0000 C.2     1  UNL1        0.3047
     29 H          11.1972    0.0950    0.0000 H       1  UNL1        0.0593
     30 H          11.9248    1.3800    0.0000 H       1  UNL1        0.0290
     31 H          11.1278    1.3800    0.0000 H       1  UNL1        0.0290
     32 H          11.9938   -0.0699    0.0000 H       1  UNL1        0.0266
     33 H          12.7908   -0.0699    0.0000 H       1  UNL1        0.0266
     34 H          10.1928    1.3800    0.0000 H       1  UNL1        0.0290
     35 H           9.3957    1.3800    0.0000 H       1  UNL1        0.0290
     36 H          13.6569    1.3800    0.0000 H       1  UNL1        0.0265
     37 H          12.8598    1.3800    0.0000 H       1  UNL1        0.0265
     38 H           8.5297   -0.0699    0.0000 H       1  UNL1        0.0266
     39 H           9.3267   -0.0699    0.0000 H       1  UNL1        0.0266
     40 H          13.7258   -0.0699    0.0000 H       1  UNL1        0.0265
     41 H          14.5229   -0.0699    0.0000 H       1  UNL1        0.0265
     42 H          15.3889    1.3800    0.0000 H       1  UNL1        0.0265
     43 H          14.5919    1.3800    0.0000 H       1  UNL1        0.0265
     44 H           8.4607    1.3800    0.0000 H       1  UNL1        0.0265
     45 H           7.6636    1.3800    0.0000 H       1  UNL1        0.0265
     46 H          15.4579   -0.0699    0.0000 H       1  UNL1        0.0265
     47 H          16.2549   -0.0699    0.0000 H       1  UNL1        0.0265
     48 H           6.7976   -0.0699    0.0000 H       1  UNL1        0.0265
     49 H           7.5947   -0.0699    0.0000 H       1  UNL1        0.0265
     50 H          17.1210    1.3800    0.0000 H       1  UNL1        0.0265
     51 H          16.3239    1.3800    0.0000 H       1  UNL1        0.0265
     52 H          17.1899   -0.0699    0.0000 H       1  UNL1        0.0265
     53 H          17.9870   -0.0699    0.0000 H       1  UNL1        0.0265
     54 H           6.7287    1.3800    0.0000 H       1  UNL1        0.0265
     55 H           5.9316    1.3800    0.0000 H       1  UNL1        0.0265
     56 H          18.8530    1.3800    0.0000 H       1  UNL1        0.0265
     57 H          18.0560    1.3800    0.0000 H       1  UNL1        0.0265
     58 H           5.0656   -0.0699    0.0000 H       1  UNL1        0.0265
     59 H           5.8626   -0.0699    0.0000 H       1  UNL1        0.0265
     60 H          18.9220   -0.0699    0.0000 H       1  UNL1        0.0265
     61 H          19.7190   -0.0699    0.0000 H       1  UNL1        0.0265
     62 H           4.9966    1.3800    0.0000 H       1  UNL1        0.0265
     63 H           4.1996    1.3800    0.0000 H       1  UNL1        0.0265
     64 H          20.5851    1.3800    0.0000 H       1  UNL1        0.0265
     65 H          19.7880    1.3800    0.0000 H       1  UNL1        0.0265
     66 H           3.3335   -0.0699    0.0000 H       1  UNL1        0.0265
     67 H           4.1306   -0.0699    0.0000 H       1  UNL1        0.0265
     68 H          10.1233   -0.9050    0.0000 H       1  UNL1        0.2098
     69 H          20.6540   -0.0699    0.0000 H       1  UNL1        0.0270
     70 H          21.4511   -0.0699    0.0000 H       1  UNL1        0.0270
     71 H           3.2646    1.3800    0.0000 H       1  UNL1        0.0263
     72 H           2.4675    1.3800    0.0000 H       1  UNL1        0.0263
     73 H          22.3171    1.3800    0.0000 H       1  UNL1        0.0377
     74 H          21.5201    1.3800    0.0000 H       1  UNL1        0.0377
     75 H           1.6900    0.9419    0.0000 H       1  UNL1        0.0230
     76 H           1.4631    0.0950    0.0000 H       1  UNL1        0.0230
     77 H           2.3100   -0.1319    0.0000 H       1  UNL1        0.0230
     78 H          24.1876    0.5950    0.0000 H       1  UNL1        0.2951
@<TRIPOS>BOND
     1     1     4    1
     2     1    68    1
     3     2    28    1
     4     2    78    1
     5     3    28    2
     6     4     5    1
     7     4     7    1
     8     4    29    1
     9     5     6    1
    10     5    30    1
    11     5    31    1
    12     6     8    1
    13     6    32    1
    14     6    33    1
    15     7     9    1
    16     7    34    1
    17     7    35    1
    18     8    10    1
    19     8    36    1
    20     8    37    1
    21     9    12    1
    22     9    38    1
    23     9    39    1
    24    10    11    1
    25    10    40    1
    26    10    41    1
    27    11    13    1
    28    11    42    1
    29    11    43    1
    30    12    14    1
    31    12    44    1
    32    12    45    1
    33    13    15    1
    34    13    46    1
    35    13    47    1
    36    14    17    1
    37    14    48    1
    38    14    49    1
    39    15    16    1
    40    15    50    1
    41    15    51    1
    42    16    18    1
    43    16    52    1
    44    16    53    1
    45    17    19    1
    46    17    54    1
    47    17    55    1
    48    18    20    1
    49    18    56    1
    50    18    57    1
    51    19    21    1
    52    19    58    1
    53    19    59    1
    54    20    22    1
    55    20    60    1
    56    20    61    1
    57    21    23    1
    58    21    62    1
    59    21    63    1
    60    22    24    1
    61    22    64    1
    62    22    65    1
    63    23    25    1
    64    23    66    1
    65    23    67    1
    66    24    26    1
    67    24    69    1
    68    24    70    1
    69    25    27    1
    70    25    71    1
    71    25    72    1
    72    26    28    1
    73    26    73    1
    74    26    74    1
    75    27    75    1
    76    27    76    1
    77    27    77    1
