@<TRIPOS>MOLECULE
IMPHY003585
 49 50 0 0 0
SMALL
GASTEIGER

@<TRIPOS>ATOM
      1 O           5.4641    0.3246    0.0000 O.3     1  UNL1       -0.4531
      2 O           8.0622   -1.1754    0.0000 O.2     1  UNL1       -0.2867
      3 O           9.8106   -1.2100    0.0000 O.3     1  UNL1       -0.5060
      4 O           8.0622    2.8246    0.0000 O.2     1  UNL1       -0.2871
      5 O           9.8106    2.8592    0.0000 O.3     1  UNL1       -0.5060
      6 O           4.5981   -1.1754    0.0000 O.2     1  UNL1       -0.2456
      7 C           6.3301   -0.1754    0.0000 C.3     1  UNL1        0.1354
      8 C           7.1962    0.3246    0.0000 C.2     1  UNL1        0.0440
      9 C           6.3301   -1.1754    0.0000 C.3     1  UNL1        0.0072
     10 C           8.9282    0.3246    0.0000 C.ar    1  UNL1        0.0777
     11 C           8.0622   -0.1754    0.0000 C.2     1  UNL1        0.1971
     12 C           8.9282    1.3246    0.0000 C.ar    1  UNL1        0.0773
     13 C           7.1962    1.3246    0.0000 C.2     1  UNL1       -0.0038
     14 C           8.0622    1.8246    0.0000 C.2     1  UNL1        0.1909
     15 C           5.4641   -1.6754    0.0000 C.2     1  UNL1       -0.0815
     16 C           9.8222   -0.2101    0.0000 C.ar    1  UNL1        0.1286
     17 C           9.8222    1.8593    0.0000 C.ar    1  UNL1        0.1286
     18 C           5.4641   -2.6754    0.0000 C.2     1  UNL1       -0.0795
     19 C          10.7282    0.3038    0.0000 C.ar    1  UNL1       -0.0160
     20 C          10.7282    1.3454    0.0000 C.ar    1  UNL1       -0.0160
     21 C           4.5981   -0.1754    0.0000 C.2     1  UNL1        0.3325
     22 C           4.5981   -3.1754    0.0000 C.3     1  UNL1       -0.0440
     23 C           6.3301   -3.1754    0.0000 C.3     1  UNL1       -0.0440
     24 C           3.7320    0.3246    0.0000 C.2     1  UNL1        0.0212
     25 C           2.8660   -0.1754    0.0000 C.2     1  UNL1       -0.0690
     26 C           2.0000    0.3246    0.0000 C.3     1  UNL1       -0.0435
     27 C           2.8660   -1.1754    0.0000 C.3     1  UNL1       -0.0435
     28 H           5.7932   -0.4854    0.0000 H       1  UNL1        0.0790
     29 H           6.5422   -1.7580    0.0000 H       1  UNL1        0.0347
     30 H           6.9407   -1.0677    0.0000 H       1  UNL1        0.0347
     31 H           6.6592    1.6346    0.0000 H       1  UNL1        0.0661
     32 H           4.9272   -1.3654    0.0000 H       1  UNL1        0.0573
     33 H          11.2639   -0.0083    0.0000 H       1  UNL1        0.0655
     34 H          11.2639    1.6575    0.0000 H       1  UNL1        0.0655
     35 H           4.2881   -2.6385    0.0000 H       1  UNL1        0.0274
     36 H           6.0201   -3.7123    0.0000 H       1  UNL1        0.0274
     37 H           6.8671   -3.4854    0.0000 H       1  UNL1        0.0274
     38 H           6.6401   -2.6385    0.0000 H       1  UNL1        0.0274
     39 H           4.0611   -3.4854    0.0000 H       1  UNL1        0.0274
     40 H           4.9081   -3.7123    0.0000 H       1  UNL1        0.0274
     41 H           3.7320    0.9446    0.0000 H       1  UNL1        0.0688
     42 H          10.3439   -1.5262    0.0000 H       1  UNL1        0.2922
     43 H          10.3439    3.1754    0.0000 H       1  UNL1        0.2922
     44 H           2.3100    0.8615    0.0000 H       1  UNL1        0.0274
     45 H           1.4631    0.6346    0.0000 H       1  UNL1        0.0274
     46 H           1.6900   -0.2123    0.0000 H       1  UNL1        0.0274
     47 H           2.2460   -1.1754    0.0000 H       1  UNL1        0.0274
     48 H           2.8660   -1.7954    0.0000 H       1  UNL1        0.0274
     49 H           3.4860   -1.1754    0.0000 H       1  UNL1        0.0274
@<TRIPOS>BOND
     1     1     7    1
     2     1    21    1
     3     2    11    2
     4     3    16    1
     5     3    42    1
     6     4    14    2
     7     5    17    1
     8     5    43    1
     9     6    21    2
    10     7     8    1
    11     7     9    1
    12     7    28    1
    13     8    11    1
    14     8    13    2
    15     9    15    1
    16     9    29    1
    17     9    30    1
    18    10    11    1
    19    10    12   ar
    20    10    16   ar
    21    12    14    1
    22    12    17   ar
    23    13    14    1
    24    13    31    1
    25    15    18    2
    26    15    32    1
    27    16    19   ar
    28    17    20   ar
    29    18    22    1
    30    18    23    1
    31    19    20   ar
    32    19    33    1
    33    20    34    1
    34    21    24    1
    35    22    35    1
    36    22    39    1
    37    22    40    1
    38    23    36    1
    39    23    37    1
    40    23    38    1
    41    24    25    2
    42    24    41    1
    43    25    26    1
    44    25    27    1
    45    26    44    1
    46    26    45    1
    47    26    46    1
    48    27    47    1
    49    27    48    1
    50    27    49    1
