@<TRIPOS>MOLECULE
IMPHY001055
 40 43 0 0 0
SMALL
GASTEIGER

@<TRIPOS>ATOM
      1 O           2.0520    2.5654    0.0000 O.2     1  UNL1       -0.2670
      2 O           3.8372   -3.6313    0.0000 O.3     1  UNL1       -0.4914
      3 O           5.6405   -2.5716    0.0000 O.3     1  UNL1       -0.5033
      4 N           2.9180    1.0654    0.0000 N.ar    1  UNL1       -0.3072
      5 N           4.6660    4.1346    0.0000 N.ar    1  UNL1       -0.2619
      6 C           2.0080    0.5585    0.0000 C.3     1  UNL1        0.0307
      7 C           2.0000   -0.4831    0.0000 C.3     1  UNL1       -0.0088
      8 C           3.7841    0.5654    0.0000 C.ar    1  UNL1        0.0530
      9 C           2.9021   -1.0039    0.0000 C.ar    1  UNL1       -0.0329
     10 C           3.8001   -0.4761    0.0000 C.ar    1  UNL1        0.0055
     11 C           2.9180    2.0654    0.0000 C.ar    1  UNL1        0.2610
     12 C           4.6501    1.0654    0.0000 C.ar    1  UNL1       -0.0290
     13 C           4.6501    2.0654    0.0000 C.ar    1  UNL1       -0.0007
     14 C           3.7841    2.5654    0.0000 C.ar    1  UNL1        0.0653
     15 C           2.8937   -2.0888    0.0000 C.ar    1  UNL1       -0.0125
     16 C           4.7520   -0.9967    0.0000 C.ar    1  UNL1       -0.0071
     17 C           3.8334   -2.6313    0.0000 C.ar    1  UNL1        0.1616
     18 C           4.7688   -2.0816    0.0000 C.ar    1  UNL1        0.1591
     19 C           5.5601    2.5722    0.0000 C.ar    1  UNL1        0.0005
     20 C           3.7680    3.6069    0.0000 C.ar    1  UNL1        0.0405
     21 C           5.5681    3.6138    0.0000 C.ar    1  UNL1        0.0353
     22 C           6.4203    2.0623    0.0000 C.2     1  UNL1       -0.0597
     23 C           2.9731   -4.1346    0.0000 C.3     1  UNL1        0.0790
     24 C           7.2920    2.5522    0.0000 C.2     1  UNL1       -0.0981
     25 H           1.8035    1.1438    0.0000 H       1  UNL1        0.0496
     26 H           1.3964    0.4572    0.0000 H       1  UNL1        0.0496
     27 H           1.3900   -0.3723    0.0000 H       1  UNL1        0.0331
     28 H           1.7864   -1.0651    0.0000 H       1  UNL1        0.0331
     29 H           5.1870    0.7554    0.0000 H       1  UNL1        0.0645
     30 H           2.3556   -2.3968    0.0000 H       1  UNL1        0.0658
     31 H           5.2829   -0.6764    0.0000 H       1  UNL1        0.0662
     32 H           3.2275    3.9107    0.0000 H       1  UNL1        0.0837
     33 H           6.1062    3.9218    0.0000 H       1  UNL1        0.0836
     34 H           6.4131    1.4423    0.0000 H       1  UNL1        0.0618
     35 H           5.6477   -3.1915    0.0000 H       1  UNL1        0.2923
     36 H           2.6610   -3.5989    0.0000 H       1  UNL1        0.0660
     37 H           2.4374   -4.4467    0.0000 H       1  UNL1        0.0660
     38 H           3.2852   -4.6704    0.0000 H       1  UNL1        0.0660
     39 H           7.8253    2.2360    0.0000 H       1  UNL1        0.0535
     40 H           7.2992    3.1722    0.0000 H       1  UNL1        0.0535
@<TRIPOS>BOND
     1     1    11    2
     2     2    17    1
     3     2    23    1
     4     3    18    1
     5     3    35    1
     6     4     6    1
     7     4     8   ar
     8     4    11   ar
     9     5    20   ar
    10     5    21   ar
    11     6     7    1
    12     6    25    1
    13     6    26    1
    14     7     9    1
    15     7    27    1
    16     7    28    1
    17     8    10    1
    18     8    12   ar
    19     9    10   ar
    20     9    15   ar
    21    10    16   ar
    22    11    14   ar
    23    12    13   ar
    24    12    29    1
    25    13    14   ar
    26    13    19   ar
    27    14    20   ar
    28    15    17   ar
    29    15    30    1
    30    16    18   ar
    31    16    31    1
    32    17    18   ar
    33    19    21   ar
    34    19    22    1
    35    20    32    1
    36    21    33    1
    37    22    24    2
    38    22    34    1
    39    23    36    1
    40    23    37    1
    41    23    38    1
    42    24    39    1
    43    24    40    1
