@<TRIPOS>MOLECULE
IMPHY010580
 69 73 0 0 0
SMALL
GASTEIGER

@<TRIPOS>ATOM
      1 O          11.1972   -1.2857    0.0000 O.3     1  UNL1       -0.3302
      2 O          12.9292   -1.2857    0.0000 O.3     1  UNL1       -0.4532
      3 O           9.4651   -3.2857    0.0000 O.3     1  UNL1       -0.3864
      4 O          11.1972   -4.2857    0.0000 O.3     1  UNL1       -0.3864
      5 O          12.9292   -3.2857    0.0000 O.3     1  UNL1       -0.3829
      6 O           8.5991   -1.7857    0.0000 O.3     1  UNL1       -0.4589
      7 O          13.7953    1.2143    0.0000 O.2     1  UNL1       -0.4507
      8 O          11.1972   -0.2857    0.0000 O.2     1  UNL1       -0.2830
      9 O           7.7331   -0.2857    0.0000 O.2     1  UNL1       -0.2456
     10 O          10.2930    1.2112    0.0000 O.3     1  UNL1       -0.5058
     11 O          12.0511    4.2836    0.0000 O.3     1  UNL1       -0.5065
     12 O          17.2594   -1.7857    0.0000 O.3     1  UNL1       -0.5068
     13 O           2.5369   -3.2857    0.0000 O.3     1  UNL1       -0.5068
     14 C          10.3312   -2.7857    0.0000 C.3     1  UNL1        0.1130
     15 C          11.1972   -3.2857    0.0000 C.3     1  UNL1        0.1152
     16 C          10.3312   -1.7857    0.0000 C.3     1  UNL1        0.1250
     17 C          12.0632   -2.7857    0.0000 C.3     1  UNL1        0.1454
     18 C          12.0632   -1.7857    0.0000 C.3     1  UNL1        0.2312
     19 C           9.4651   -1.2857    0.0000 C.3     1  UNL1        0.1215
     20 C          12.9292   -0.2857    0.0000 C.ar    1  UNL1        0.2138
     21 C          13.7953    0.2143    0.0000 C.ar    1  UNL1        0.1809
     22 C          12.0632    0.2143    0.0000 C.ar    1  UNL1        0.2382
     23 C          12.0632    1.2143    0.0000 C.ar    1  UNL1        0.1092
     24 C           7.7331   -1.2857    0.0000 C.2     1  UNL1        0.3320
     25 C          12.9292    1.7143    0.0000 C.ar    1  UNL1        0.1465
     26 C          14.6613   -0.2857    0.0000 C.ar    1  UNL1        0.0213
     27 C          11.1532    1.7212    0.0000 C.ar    1  UNL1        0.1348
     28 C          12.9453    2.7558    0.0000 C.ar    1  UNL1        0.0231
     29 C           6.8671   -1.7857    0.0000 C.2     1  UNL1        0.0231
     30 C          14.6613   -1.2857    0.0000 C.ar    1  UNL1       -0.0475
     31 C          15.5273    0.2143    0.0000 C.ar    1  UNL1       -0.0475
     32 C          11.1452    2.7628    0.0000 C.ar    1  UNL1        0.0223
     33 C          12.0473    3.2836    0.0000 C.ar    1  UNL1        0.1239
     34 C          15.5273   -1.7857    0.0000 C.ar    1  UNL1       -0.0195
     35 C          16.3933   -0.2857    0.0000 C.ar    1  UNL1       -0.0195
     36 C          16.3933   -1.2857    0.0000 C.ar    1  UNL1        0.1169
     37 C           6.0010   -1.2857    0.0000 C.2     1  UNL1       -0.0478
     38 C           5.1350   -1.7857    0.0000 C.ar    1  UNL1       -0.0246
     39 C           5.1350   -2.7857    0.0000 C.ar    1  UNL1       -0.0511
     40 C           4.2690   -1.2857    0.0000 C.ar    1  UNL1       -0.0511
     41 C           4.2690   -3.2857    0.0000 C.ar    1  UNL1       -0.0196
     42 C           3.4030   -1.7857    0.0000 C.ar    1  UNL1       -0.0196
     43 C           3.4030   -2.7857    0.0000 C.ar    1  UNL1        0.1169
     44 H           9.7942   -2.4757    0.0000 H       1  UNL1        0.0647
     45 H          10.6603   -3.5957    0.0000 H       1  UNL1        0.0648
     46 H          10.3312   -1.1657    0.0000 H       1  UNL1        0.0658
     47 H          12.0632   -3.4057    0.0000 H       1  UNL1        0.0683
     48 H          12.0632   -1.1657    0.0000 H       1  UNL1        0.1084
     49 H           9.8637   -0.8107    0.0000 H       1  UNL1        0.0725
     50 H           9.0666   -0.8107    0.0000 H       1  UNL1        0.0725
     51 H           9.4651   -3.9057    0.0000 H       1  UNL1        0.2100
     52 H          10.6603   -4.5957    0.0000 H       1  UNL1        0.2100
     53 H          12.9292   -3.9057    0.0000 H       1  UNL1        0.2102
     54 H          13.4858    3.0596    0.0000 H       1  UNL1        0.0691
     55 H           6.8671   -2.4057    0.0000 H       1  UNL1        0.0689
     56 H          14.1244   -1.5957    0.0000 H       1  UNL1        0.0626
     57 H          15.5273    0.8343    0.0000 H       1  UNL1        0.0626
     58 H          10.6071    3.0707    0.0000 H       1  UNL1        0.0691
     59 H          15.5273   -2.4057    0.0000 H       1  UNL1        0.0654
     60 H          16.9303    0.0243    0.0000 H       1  UNL1        0.0654
     61 H           6.0010   -0.6657    0.0000 H       1  UNL1        0.0626
     62 H           9.7525    1.5150    0.0000 H       1  UNL1        0.2922
     63 H          11.5154    4.5957    0.0000 H       1  UNL1        0.2921
     64 H          17.2594   -2.4057    0.0000 H       1  UNL1        0.2921
     65 H           5.6720   -3.0957    0.0000 H       1  UNL1        0.0625
     66 H           4.2690   -0.6657    0.0000 H       1  UNL1        0.0625
     67 H           4.2690   -3.9057    0.0000 H       1  UNL1        0.0654
     68 H           2.8660   -1.4757    0.0000 H       1  UNL1        0.0654
     69 H           2.0000   -2.9757    0.0000 H       1  UNL1        0.2921
@<TRIPOS>BOND
     1     1    16    1
     2     1    18    1
     3    18     2    1
     4     2    20    1
     5    14     3    1
     6     3    51    1
     7    15     4    1
     8     4    52    1
     9    17     5    1
    10     5    53    1
    11     6    19    1
    12     6    24    1
    13     7    21   ar
    14     7    25   ar
    15     8    22    2
    16     9    24    2
    17    10    27    1
    18    10    62    1
    19    11    33    1
    20    11    63    1
    21    12    36    1
    22    12    64    1
    23    13    43    1
    24    13    69    1
    25    14    15    1
    26    14    16    1
    27    14    44    1
    28    15    17    1
    29    15    45    1
    30    16    19    1
    31    16    46    1
    32    17    18    1
    33    17    47    1
    34    18    48    1
    35    19    49    1
    36    19    50    1
    37    20    21   ar
    38    20    22   ar
    39    21    26    1
    40    22    23   ar
    41    23    25   ar
    42    23    27   ar
    43    24    29    1
    44    25    28   ar
    45    26    30   ar
    46    26    31   ar
    47    27    32   ar
    48    28    33   ar
    49    28    54    1
    50    29    37    2
    51    29    55    1
    52    30    34   ar
    53    30    56    1
    54    31    35   ar
    55    31    57    1
    56    32    33   ar
    57    32    58    1
    58    34    36   ar
    59    34    59    1
    60    35    36   ar
    61    35    60    1
    62    37    38    1
    63    37    61    1
    64    38    39   ar
    65    38    40   ar
    66    39    41   ar
    67    39    65    1
    68    40    42   ar
    69    40    66    1
    70    41    43   ar
    71    41    67    1
    72    42    43   ar
    73    42    68    1
