@<TRIPOS>MOLECULE
IMPHY009897
 68 70 0 0 0
SMALL
GASTEIGER

@<TRIPOS>ATOM
      1 O           5.1478   -0.6841    0.0000 O.3     1  UNL1       -0.4573
      2 O           4.2818    1.8159    0.0000 O.3     1  UNL1       -0.4581
      3 O           7.8458   -0.9429    0.0000 O.3     1  UNL1       -0.3748
      4 O           7.7459    1.8159    0.0000 O.3     1  UNL1       -0.4563
      5 O           6.0139   -2.1841    0.0000 O.2     1  UNL1       -0.2474
      6 O           5.8951    0.1422    0.0000 O.3     1  UNL1       -0.3777
      7 O           6.7210    1.1088    0.0000 O.3     1  UNL1       -0.3745
      8 O           5.1478    3.3159    0.0000 O.2     1  UNL1       -0.2474
      9 O           8.6119    0.3159    0.0000 O.2     1  UNL1       -0.2478
     10 N           2.6788   -1.3512    0.0000 N.3     1  UNL1       -0.2886
     11 C           3.4158   -0.6841    0.0000 C.3     1  UNL1        0.0723
     12 C           4.2818   -1.1841    0.0000 C.3     1  UNL1        0.1236
     13 C           4.0726   -2.1559    0.0000 C.3     1  UNL1       -0.0010
     14 C           3.0839   -2.2590    0.0000 C.3     1  UNL1        0.0033
     15 C           3.4158    0.3159    0.0000 C.2     1  UNL1       -0.0148
     16 C           2.0000   -0.6058    0.0000 C.3     1  UNL1        0.0182
     17 C           2.4076    0.3163    0.0000 C.2     1  UNL1       -0.0660
     18 C           4.2818    0.8159    0.0000 C.3     1  UNL1        0.1153
     19 C           6.8799   -0.6841    0.0000 C.3     1  UNL1        0.2011
     20 C           6.0139   -1.1841    0.0000 C.2     1  UNL1        0.3429
     21 C           7.3025   -1.5904    0.0000 C.3     1  UNL1       -0.0016
     22 C           6.8799    0.3159    0.0000 C.3     1  UNL1        0.1912
     23 C           6.0139    1.8159    0.0000 C.3     1  UNL1        0.2012
     24 C           6.8799    2.3159    0.0000 C.3     1  UNL1        0.1396
     25 C           5.7550    0.8500    0.0000 C.3     1  UNL1       -0.0037
     26 C           6.7289   -2.4096    0.0000 C.3     1  UNL1       -0.0501
     27 C           5.1478    2.3159    0.0000 C.2     1  UNL1        0.3435
     28 C           8.2987   -1.6776    0.0000 C.3     1  UNL1       -0.0592
     29 C           7.7459    0.8159    0.0000 C.2     1  UNL1        0.3399
     30 C           6.8799    3.3159    0.0000 C.3     1  UNL1       -0.0244
     31 C           4.8487    0.4274    0.0000 C.3     1  UNL1       -0.0594
     32 C           6.5682    0.0368    0.0000 C.3     1  UNL1       -0.0594
     33 C           7.1516   -3.3159    0.0000 C.3     1  UNL1       -0.0649
     34 H           3.4158   -1.5341    0.0000 H       1  UNL1        0.0547
     35 H           4.9688   -1.6846    0.0000 H       1  UNL1        0.0753
     36 H           4.0717   -2.7759    0.0000 H       1  UNL1        0.0314
     37 H           4.6891   -2.2220    0.0000 H       1  UNL1        0.0314
     38 H           2.4943   -2.4508    0.0000 H       1  UNL1        0.0428
     39 H           3.2126   -2.8655    0.0000 H       1  UNL1        0.0428
     40 H           1.4730   -0.2791    0.0000 H       1  UNL1        0.0470
     41 H           1.6037   -1.0826    0.0000 H       1  UNL1        0.0470
     42 H           2.0694    0.8359    0.0000 H       1  UNL1        0.0586
     43 H           4.4939    0.2333    0.0000 H       1  UNL1        0.0746
     44 H           4.8924    0.9235    0.0000 H       1  UNL1        0.0746
     45 H           7.5645   -2.1523    0.0000 H       1  UNL1        0.0332
     46 H           6.6678    0.8985    0.0000 H       1  UNL1        0.0746
     47 H           7.4168    2.6259    0.0000 H       1  UNL1        0.0766
     48 H           5.2801    1.2485    0.0000 H       1  UNL1        0.0330
     49 H           6.2905   -1.9712    0.0000 H       1  UNL1        0.0266
     50 H           6.2210   -2.7652    0.0000 H       1  UNL1        0.0266
     51 H           8.2447   -2.2952    0.0000 H       1  UNL1        0.0233
     52 H           8.9163   -1.7316    0.0000 H       1  UNL1        0.0233
     53 H           8.3527   -1.0599    0.0000 H       1  UNL1        0.0233
     54 H           8.2842   -0.5045    0.0000 H       1  UNL1        0.2110
     55 H           7.4999    3.3159    0.0000 H       1  UNL1        0.0266
     56 H           6.8799    3.9359    0.0000 H       1  UNL1        0.0266
     57 H           6.2599    3.3159    0.0000 H       1  UNL1        0.0266
     58 H           4.5867    0.9893    0.0000 H       1  UNL1        0.0233
     59 H           4.2868    0.1654    0.0000 H       1  UNL1        0.0233
     60 H           5.1107   -0.1345    0.0000 H       1  UNL1        0.0233
     61 H           6.1298   -0.4016    0.0000 H       1  UNL1        0.0233
     62 H           7.0066   -0.4016    0.0000 H       1  UNL1        0.0233
     63 H           7.0066    0.4752    0.0000 H       1  UNL1        0.0233
     64 H           6.5896   -3.5779    0.0000 H       1  UNL1        0.0230
     65 H           7.4136   -3.8778    0.0000 H       1  UNL1        0.0230
     66 H           7.7135   -3.0539    0.0000 H       1  UNL1        0.0230
     67 H           5.7875   -0.4684    0.0000 H       1  UNL1        0.2106
     68 H           7.3198    1.2692    0.0000 H       1  UNL1        0.2110
@<TRIPOS>BOND
     1     1    12    1
     2     1    20    1
     3     2    18    1
     4     2    27    1
     5     3    19    1
     6     3    54    1
     7     4    24    1
     8     4    29    1
     9     5    20    2
    10     6    22    1
    11     6    67    1
    12     7    23    1
    13     7    68    1
    14     8    27    2
    15     9    29    2
    16    10    11    1
    17    10    14    1
    18    10    16    1
    19    11    12    1
    20    11    15    1
    21    11    34    1
    22    12    13    1
    23    12    35    1
    24    13    14    1
    25    13    36    1
    26    13    37    1
    27    14    38    1
    28    14    39    1
    29    15    17    2
    30    15    18    1
    31    16    17    1
    32    16    40    1
    33    16    41    1
    34    17    42    1
    35    18    43    1
    36    18    44    1
    37    19    20    1
    38    19    21    1
    39    19    22    1
    40    21    26    1
    41    21    28    1
    42    21    45    1
    43    22    29    1
    44    22    46    1
    45    23    24    1
    46    23    25    1
    47    23    27    1
    48    24    30    1
    49    24    47    1
    50    25    31    1
    51    25    32    1
    52    25    48    1
    53    26    33    1
    54    26    49    1
    55    26    50    1
    56    28    51    1
    57    28    52    1
    58    28    53    1
    59    30    55    1
    60    30    56    1
    61    30    57    1
    62    31    58    1
    63    31    59    1
    64    31    60    1
    65    32    61    1
    66    32    62    1
    67    32    63    1
    68    33    64    1
    69    33    65    1
    70    33    66    1
