@<TRIPOS>MOLECULE
IMPHY015394
 53 57 0 0 0
SMALL
GASTEIGER

@<TRIPOS>ATOM
      1 O           5.4641    5.0000    0.0000 O.3     1  UNL1       -0.4951
      2 N           5.4641   -1.0000    0.0000 N.ar    1  UNL1       -0.2436
      3 N           2.8660   -0.5000    0.0000 N.ar    1  UNL1       -0.2534
      4 N           8.0622   -0.5000    0.0000 N.ar    1  UNL1       -0.2534
      5 C           5.4641    1.0000    0.0000 C.ar    1  UNL1       -0.0137
      6 C           4.5981   -0.5000    0.0000 C.ar    1  UNL1        0.0905
      7 C           5.4641    2.0000    0.0000 C.ar    1  UNL1       -0.0175
      8 C           4.5981    0.5000    0.0000 C.ar    1  UNL1       -0.0264
      9 C           3.7320   -1.0000    0.0000 C.ar    1  UNL1        0.0897
     10 C           6.3301    0.5000    0.0000 C.ar    1  UNL1       -0.0264
     11 C           6.3301   -0.5000    0.0000 C.ar    1  UNL1        0.0904
     12 C           2.8660   -2.5000    0.0000 C.ar    1  UNL1       -0.0144
     13 C           3.7320   -2.0000    0.0000 C.ar    1  UNL1       -0.0265
     14 C           2.8660   -3.5000    0.0000 C.ar    1  UNL1       -0.0178
     15 C           4.5981    2.5000    0.0000 C.ar    1  UNL1       -0.0506
     16 C           6.3301    2.5000    0.0000 C.ar    1  UNL1       -0.0506
     17 C           7.1962   -1.0000    0.0000 C.ar    1  UNL1        0.0891
     18 C           2.0000   -2.0000    0.0000 C.ar    1  UNL1       -0.0358
     19 C           4.5981    3.5000    0.0000 C.ar    1  UNL1       -0.0194
     20 C           6.3301    3.5000    0.0000 C.ar    1  UNL1       -0.0194
     21 C           5.4641    4.0000    0.0000 C.ar    1  UNL1        0.1201
     22 C           2.0000   -1.0000    0.0000 C.ar    1  UNL1        0.0289
     23 C           2.0000   -4.0000    0.0000 C.ar    1  UNL1       -0.0540
     24 C           3.7320   -4.0000    0.0000 C.ar    1  UNL1       -0.0540
     25 C           7.1962   -2.0000    0.0000 C.ar    1  UNL1       -0.0342
     26 C           2.0000   -5.0000    0.0000 C.ar    1  UNL1       -0.0612
     27 C           3.7320   -5.0000    0.0000 C.ar    1  UNL1       -0.0612
     28 C           2.8660   -5.5000    0.0000 C.ar    1  UNL1       -0.0617
     29 C           8.0622   -2.5000    0.0000 C.ar    1  UNL1       -0.0583
     30 C           8.9282   -1.0000    0.0000 C.ar    1  UNL1        0.0283
     31 C           8.9282   -2.0000    0.0000 C.ar    1  UNL1       -0.0436
     32 C           6.3301    5.5000    0.0000 C.3     1  UNL1        0.0788
     33 H           4.0611    0.8100    0.0000 H       1  UNL1        0.0645
     34 H           6.8671    0.8100    0.0000 H       1  UNL1        0.0645
     35 H           4.2690   -2.3100    0.0000 H       1  UNL1        0.0645
     36 H           4.0611    2.1900    0.0000 H       1  UNL1        0.0625
     37 H           6.8671    2.1900    0.0000 H       1  UNL1        0.0625
     38 H           1.4631   -2.3100    0.0000 H       1  UNL1        0.0639
     39 H           4.0611    3.8100    0.0000 H       1  UNL1        0.0654
     40 H           6.8671    3.8100    0.0000 H       1  UNL1        0.0654
     41 H           1.4631   -0.6900    0.0000 H       1  UNL1        0.0830
     42 H           1.4631   -3.6900    0.0000 H       1  UNL1        0.0624
     43 H           4.2690   -3.6900    0.0000 H       1  UNL1        0.0624
     44 H           6.6592   -2.3100    0.0000 H       1  UNL1        0.0639
     45 H           1.4631   -5.3100    0.0000 H       1  UNL1        0.0618
     46 H           4.2690   -5.3100    0.0000 H       1  UNL1        0.0618
     47 H           2.8660   -6.1200    0.0000 H       1  UNL1        0.0618
     48 H           8.0622   -3.1200    0.0000 H       1  UNL1        0.0619
     49 H           9.4651   -0.6900    0.0000 H       1  UNL1        0.0830
     50 H           9.4651   -2.3100    0.0000 H       1  UNL1        0.0633
     51 H           6.6401    4.9631    0.0000 H       1  UNL1        0.0660
     52 H           6.8671    5.8100    0.0000 H       1  UNL1        0.0660
     53 H           6.0201    6.0369    0.0000 H       1  UNL1        0.0660
@<TRIPOS>BOND
     1     1    21    1
     2     1    32    1
     3     2     6   ar
     4     2    11   ar
     5     3     9   ar
     6     3    22   ar
     7     4    17   ar
     8     4    30   ar
     9     5     7    1
    10     5     8   ar
    11     5    10   ar
    12     6     8   ar
    13     6     9    1
    14     7    15   ar
    15     7    16   ar
    16     8    33    1
    17     9    13   ar
    18    10    11   ar
    19    10    34    1
    20    11    17    1
    21    12    13   ar
    22    12    14    1
    23    12    18   ar
    24    13    35    1
    25    14    23   ar
    26    14    24   ar
    27    15    19   ar
    28    15    36    1
    29    16    20   ar
    30    16    37    1
    31    17    25   ar
    32    18    22   ar
    33    18    38    1
    34    19    21   ar
    35    19    39    1
    36    20    21   ar
    37    20    40    1
    38    22    41    1
    39    23    26   ar
    40    23    42    1
    41    24    27   ar
    42    24    43    1
    43    25    29   ar
    44    25    44    1
    45    26    28   ar
    46    26    45    1
    47    27    28   ar
    48    27    46    1
    49    28    47    1
    50    29    31   ar
    51    29    48    1
    52    30    31   ar
    53    30    49    1
    54    31    50    1
    55    32    51    1
    56    32    52    1
    57    32    53    1
