@<TRIPOS>MOLECULE
IMPHY007364
 39 40 0 0 0
SMALL
GASTEIGER

@<TRIPOS>ATOM
      1 O           6.3887   -2.7097    0.0000 O.3     1  UNL1       -0.3694
      2 O           3.5984    0.1544    0.0000 O.3     1  UNL1       -0.3810
      3 O           2.0000   -2.8494    0.0000 O.2     1  UNL1       -0.2973
      4 O           8.2707    2.3691    0.0000 O.co2   1  UNL1       -0.5452
      5 O           7.2526    0.9679    0.0000 O.co2   1  UNL1       -0.5452
      6 C           5.2486   -1.2349    0.0000 C.3     1  UNL1        0.0330
      7 C           4.5120   -0.2523    0.0000 C.3     1  UNL1        0.1211
      8 C           4.9898   -2.2009    0.0000 C.3     1  UNL1        0.1060
      9 C           6.6475   -1.7438    0.0000 C.3     1  UNL1        0.0573
     10 C           3.2153   -1.5461    0.0000 C.3     1  UNL1        0.0164
     11 C           3.7687   -3.0665    0.0000 C.3     1  UNL1        0.0377
     12 C           5.5074   -0.2690    0.0000 C.3     1  UNL1       -0.0540
     13 C           2.9397   -2.5073    0.0000 C.2     1  UNL1        0.1369
     14 C           4.7309   -3.1668    0.0000 C.3     1  UNL1       -0.0324
     15 C           4.6165    0.7422    0.0000 C.2     1  UNL1       -0.0493
     16 C           5.5300    1.1489    0.0000 C.2     1  UNL1       -0.0599
     17 C           5.6346    2.1434    0.0000 C.2     1  UNL1       -0.0490
     18 C           4.8255    2.7312    0.0000 C.3     1  UNL1       -0.0397
     19 C           6.5481    2.5502    0.0000 C.2     1  UNL1       -0.0364
     20 C           7.3571    1.9624    0.0000 C.2     1  UNL1        0.0648
     21 H           7.2415   -1.9215    0.0000 H       1  UNL1        0.0567
     22 H           6.8424   -1.1552    0.0000 H       1  UNL1        0.0567
     23 H           3.2103   -0.9261    0.0000 H       1  UNL1        0.0349
     24 H           2.6010   -1.4623    0.0000 H       1  UNL1        0.0349
     25 H           3.3629   -3.5352    0.0000 H       1  UNL1        0.0371
     26 H           4.1854   -3.5257    0.0000 H       1  UNL1        0.0371
     27 H           6.1063   -0.4295    0.0000 H       1  UNL1        0.0237
     28 H           5.6679    0.3299    0.0000 H       1  UNL1        0.0237
     29 H           4.9085   -0.1085    0.0000 H       1  UNL1        0.0237
     30 H           4.1321   -3.0063    0.0000 H       1  UNL1        0.0258
     31 H           4.5705   -3.7657    0.0000 H       1  UNL1        0.0258
     32 H           5.3298   -3.3273    0.0000 H       1  UNL1        0.0258
     33 H           4.1149    1.1066    0.0000 H       1  UNL1        0.0601
     34 H           3.0968   -0.2100    0.0000 H       1  UNL1        0.2107
     35 H           6.0316    0.7845    0.0000 H       1  UNL1        0.0618
     36 H           5.1900    3.2328    0.0000 H       1  UNL1        0.0278
     37 H           4.3240    3.0957    0.0000 H       1  UNL1        0.0278
     38 H           4.4611    2.2296    0.0000 H       1  UNL1        0.0278
     39 H           6.6129    3.1668    0.0000 H       1  UNL1        0.0638
@<TRIPOS>UNITY_ATOM_ATTR
4 1
charge -1
@<TRIPOS>BOND
     1     1     8    1
     2     1     9    1
     3     7     2    1
     4     2    34    1
     5     3    13    2
     6     4    20   ar
     7     5    20   ar
     8     6     7    1
     9     6     9    1
    10     6    10    1
    11     6    12    1
    12     7     8    1
    13     7    15    1
    14     8    11    1
    15     8    14    1
    16     9    21    1
    17     9    22    1
    18    10    13    1
    19    10    23    1
    20    10    24    1
    21    11    13    1
    22    11    25    1
    23    11    26    1
    24    12    27    1
    25    12    28    1
    26    12    29    1
    27    14    30    1
    28    14    31    1
    29    14    32    1
    30    15    16    2
    31    15    33    1
    32    16    17    1
    33    16    35    1
    34    17    18    1
    35    17    19    2
    36    18    36    1
    37    18    37    1
    38    18    38    1
    39    19    20    1
    40    19    39    1
