@<TRIPOS>MOLECULE
IMPHY009166
 75 78 0 0 0
SMALL
GASTEIGER

@<TRIPOS>ATOM
      1 O          10.1354    3.6043    0.0000 O.2     1  UNL1       -0.2759
      2 N          10.4926    1.9095    0.0000 N.am    1  UNL1       -0.3017
      3 N           2.8641   -2.6043    0.0000 N.3     1  UNL1       -0.3054
      4 C           8.2572   -0.5520    0.0000 C.3     1  UNL1       -0.0322
      5 C           7.3912   -1.0520    0.0000 C.3     1  UNL1       -0.0344
      6 C           8.2572    0.4480    0.0000 C.3     1  UNL1       -0.0245
      7 C           6.5251   -0.5520    0.0000 C.3     1  UNL1       -0.0323
      8 C           5.6151   -1.0588    0.0000 C.3     1  UNL1       -0.0260
      9 C           9.2034    0.7527    0.0000 C.3     1  UNL1       -0.0170
     10 C           5.6071   -2.1004    0.0000 C.3     1  UNL1       -0.0339
     11 C           7.3912    0.9480    0.0000 C.3     1  UNL1       -0.0468
     12 C           6.5251    0.4480    0.0000 C.3     1  UNL1       -0.0489
     13 C           9.2034   -0.8567    0.0000 C.3     1  UNL1       -0.0491
     14 C           7.4072   -2.0935    0.0000 C.3     1  UNL1       -0.0494
     15 C           9.7870   -0.0520    0.0000 C.3     1  UNL1       -0.0478
     16 C           6.5092   -2.6212    0.0000 C.3     1  UNL1       -0.0494
     17 C           4.6883   -0.4947    0.0000 C.3     1  UNL1       -0.0457
     18 C           4.6717   -2.6502    0.0000 C.3     1  UNL1       -0.0340
     19 C           8.2572    1.4480    0.0000 C.3     1  UNL1       -0.0590
     20 C           5.6228   -0.0589    0.0000 C.3     1  UNL1       -0.0590
     21 C           9.5141    1.7033    0.0000 C.3     1  UNL1        0.0262
     22 C           3.7320   -2.1077    0.0000 C.3     1  UNL1        0.0101
     23 C           3.7404   -1.0227    0.0000 C.3     1  UNL1       -0.0368
     24 C           8.8462    2.4476    0.0000 C.3     1  UNL1       -0.0462
     25 C          11.1604    1.1652    0.0000 C.3     1  UNL1        0.0034
     26 C           2.0000   -2.1010    0.0000 C.3     1  UNL1       -0.0128
     27 C           2.8602   -3.6043    0.0000 C.3     1  UNL1       -0.0128
     28 C          10.8032    2.8600    0.0000 C.2     1  UNL1        0.2125
     29 C          11.7817    3.0662    0.0000 C.3     1  UNL1        0.0124
     30 H           8.3471   -1.3972    0.0000 H       1  UNL1        0.0309
     31 H           8.1305   -1.4713    0.0000 H       1  UNL1        0.0306
     32 H           7.2612   -0.1270    0.0000 H       1  UNL1        0.0309
     33 H          10.0431    0.8846    0.0000 H       1  UNL1        0.0324
     34 H           5.6104   -2.9504    0.0000 H       1  UNL1        0.0307
     35 H           7.7897    1.4230    0.0000 H       1  UNL1        0.0271
     36 H           6.9926    1.4230    0.0000 H       1  UNL1        0.0271
     37 H           6.3131    1.0306    0.0000 H       1  UNL1        0.0268
     38 H           5.9145    0.3404    0.0000 H       1  UNL1        0.0268
     39 H           8.9524   -1.4236    0.0000 H       1  UNL1        0.0268
     40 H           9.7408   -1.1659    0.0000 H       1  UNL1        0.0268
     41 H           7.6252   -2.6739    0.0000 H       1  UNL1        0.0268
     42 H           8.0164   -1.9780    0.0000 H       1  UNL1        0.0268
     43 H          10.2479   -0.4667    0.0000 H       1  UNL1        0.0269
     44 H          10.2479    0.3627    0.0000 H       1  UNL1        0.0269
     45 H           6.1119   -3.0972    0.0000 H       1  UNL1        0.0268
     46 H           6.9101   -3.0941    0.0000 H       1  UNL1        0.0268
     47 H           5.0965   -0.0281    0.0000 H       1  UNL1        0.0271
     48 H           4.2984   -0.0127    0.0000 H       1  UNL1        0.0271
     49 H           4.2744   -3.1261    0.0000 H       1  UNL1        0.0283
     50 H           5.0726   -3.1230    0.0000 H       1  UNL1        0.0283
     51 H           8.8772    1.4480    0.0000 H       1  UNL1        0.0235
     52 H           8.2572    2.0680    0.0000 H       1  UNL1        0.0235
     53 H           7.6372    1.4480    0.0000 H       1  UNL1        0.0235
     54 H           6.2428   -0.0636    0.0000 H       1  UNL1        0.0235
     55 H           5.6276    0.5611    0.0000 H       1  UNL1        0.0235
     56 H           5.0028   -0.0541    0.0000 H       1  UNL1        0.0235
     57 H           9.7067    2.2926    0.0000 H       1  UNL1        0.0500
     58 H           3.7308   -2.7277    0.0000 H       1  UNL1        0.0462
     59 H           3.5358   -0.4374    0.0000 H       1  UNL1        0.0280
     60 H           3.1288   -1.1241    0.0000 H       1  UNL1        0.0280
     61 H           9.3077    2.8616    0.0000 H       1  UNL1        0.0248
     62 H           8.4322    2.9090    0.0000 H       1  UNL1        0.0248
     63 H           8.3848    2.0335    0.0000 H       1  UNL1        0.0248
     64 H          10.6989    0.7511    0.0000 H       1  UNL1        0.0429
     65 H          11.5745    0.7037    0.0000 H       1  UNL1        0.0429
     66 H          11.6219    1.5792    0.0000 H       1  UNL1        0.0429
     67 H           2.2402   -3.6019    0.0000 H       1  UNL1        0.0391
     68 H           2.8578   -4.2243    0.0000 H       1  UNL1        0.0391
     69 H           3.4802   -3.6067    0.0000 H       1  UNL1        0.0391
     70 H           2.3121   -1.5652    0.0000 H       1  UNL1        0.0391
     71 H           1.4643   -1.7889    0.0000 H       1  UNL1        0.0391
     72 H           1.6879   -2.6367    0.0000 H       1  UNL1        0.0391
     73 H          11.9096    2.4596    0.0000 H       1  UNL1        0.0323
     74 H          12.3884    3.1941    0.0000 H       1  UNL1        0.0323
     75 H          11.6539    3.6729    0.0000 H       1  UNL1        0.0323
@<TRIPOS>BOND
     1     1    28    2
     2    21     2    1
     3     2    25    1
     4     2    28   am
     5    22     3    1
     6     3    26    1
     7     3    27    1
     8     4     5    1
     9     4     6    1
    10     4    13    1
    11     4    30    1
    12     5     7    1
    13     5    14    1
    14     5    31    1
    15     6     9    1
    16     6    11    1
    17     6    19    1
    18     7     8    1
    19     7    12    1
    20     7    32    1
    21     8    10    1
    22     8    17    1
    23     8    20    1
    24     9    15    1
    25     9    21    1
    26     9    33    1
    27    10    16    1
    28    10    18    1
    29    10    34    1
    30    11    12    1
    31    11    35    1
    32    11    36    1
    33    12    37    1
    34    12    38    1
    35    13    15    1
    36    13    39    1
    37    13    40    1
    38    14    16    1
    39    14    41    1
    40    14    42    1
    41    15    43    1
    42    15    44    1
    43    16    45    1
    44    16    46    1
    45    17    23    1
    46    17    47    1
    47    17    48    1
    48    18    22    1
    49    18    49    1
    50    18    50    1
    51    19    51    1
    52    19    52    1
    53    19    53    1
    54    20    54    1
    55    20    55    1
    56    20    56    1
    57    21    24    1
    58    21    57    1
    59    22    23    1
    60    22    58    1
    61    23    59    1
    62    23    60    1
    63    24    61    1
    64    24    62    1
    65    24    63    1
    66    25    64    1
    67    25    65    1
    68    25    66    1
    69    26    70    1
    70    26    71    1
    71    26    72    1
    72    27    67    1
    73    27    68    1
    74    27    69    1
    75    28    29    1
    76    29    73    1
    77    29    74    1
    78    29    75    1
