@<TRIPOS>MOLECULE
IMPHY004673
 59 58 0 0 0
SMALL
GASTEIGER

@<TRIPOS>ATOM
      1 O          13.2583   -6.0600    0.0000 O.3     1  UNL1       -0.4649
      2 O          12.3923   -4.5600    0.0000 O.2     1  UNL1       -0.2456
      3 O           2.0000    6.4400    0.0000 O.3     1  UNL1       -0.4775
      4 O           3.7320    6.4400    0.0000 O.2     1  UNL1       -0.2458
      5 C           8.0622   -3.0600    0.0000 C.2     1  UNL1       -0.0504
      6 C           5.4641    0.4400    0.0000 C.2     1  UNL1       -0.0504
      7 C           7.1962   -2.5600    0.0000 C.2     1  UNL1       -0.0588
      8 C           8.0622   -4.0600    0.0000 C.2     1  UNL1       -0.0588
      9 C           6.3301   -0.0600    0.0000 C.2     1  UNL1       -0.0588
     10 C           5.4641    1.4400    0.0000 C.2     1  UNL1       -0.0588
     11 C           9.7942   -6.0600    0.0000 C.2     1  UNL1       -0.0502
     12 C           7.1962   -1.5600    0.0000 C.2     1  UNL1       -0.0615
     13 C           6.3301   -1.0600    0.0000 C.2     1  UNL1       -0.0615
     14 C           8.9282   -2.5600    0.0000 C.3     1  UNL1       -0.0397
     15 C           8.9282   -4.5600    0.0000 C.2     1  UNL1       -0.0613
     16 C           4.5981   -0.0600    0.0000 C.3     1  UNL1       -0.0397
     17 C           8.9282   -5.5600    0.0000 C.2     1  UNL1       -0.0588
     18 C           3.7320    3.4400    0.0000 C.2     1  UNL1       -0.0502
     19 C           4.5981    1.9400    0.0000 C.2     1  UNL1       -0.0613
     20 C           4.5981    2.9400    0.0000 C.2     1  UNL1       -0.0588
     21 C           9.7942   -7.0600    0.0000 C.3     1  UNL1       -0.0397
     22 C           2.8660    2.9400    0.0000 C.3     1  UNL1       -0.0397
     23 C          10.6603   -5.5600    0.0000 C.2     1  UNL1       -0.0521
     24 C           3.7320    4.4400    0.0000 C.2     1  UNL1       -0.0521
     25 C          11.5263   -6.0600    0.0000 C.2     1  UNL1        0.0227
     26 C           2.8660    4.9400    0.0000 C.2     1  UNL1        0.0226
     27 C          12.3923   -5.5600    0.0000 C.2     1  UNL1        0.3317
     28 C           2.8660    5.9400    0.0000 C.2     1  UNL1        0.3296
     29 C          14.1244   -5.5600    0.0000 C.3     1  UNL1        0.0820
     30 H           6.6592   -2.8700    0.0000 H       1  UNL1        0.0620
     31 H           7.5252   -4.3700    0.0000 H       1  UNL1        0.0620
     32 H           6.8671    0.2500    0.0000 H       1  UNL1        0.0620
     33 H           6.0010    1.7500    0.0000 H       1  UNL1        0.0620
     34 H           7.7331   -1.2500    0.0000 H       1  UNL1        0.0618
     35 H           5.7932   -1.3700    0.0000 H       1  UNL1        0.0618
     36 H           9.2382   -3.0969    0.0000 H       1  UNL1        0.0278
     37 H           9.4651   -2.2500    0.0000 H       1  UNL1        0.0278
     38 H           8.6182   -2.0231    0.0000 H       1  UNL1        0.0278
     39 H           9.4651   -4.2500    0.0000 H       1  UNL1        0.0618
     40 H           4.2881    0.4769    0.0000 H       1  UNL1        0.0278
     41 H           4.0611   -0.3700    0.0000 H       1  UNL1        0.0278
     42 H           4.9081   -0.5969    0.0000 H       1  UNL1        0.0278
     43 H           8.3913   -5.8700    0.0000 H       1  UNL1        0.0620
     44 H           4.0611    1.6300    0.0000 H       1  UNL1        0.0618
     45 H           5.1350    3.2500    0.0000 H       1  UNL1        0.0620
     46 H           9.1742   -7.0600    0.0000 H       1  UNL1        0.0278
     47 H           9.7942   -7.6800    0.0000 H       1  UNL1        0.0278
     48 H          10.4142   -7.0600    0.0000 H       1  UNL1        0.0278
     49 H           2.5560    3.4769    0.0000 H       1  UNL1        0.0278
     50 H           2.3291    2.6300    0.0000 H       1  UNL1        0.0278
     51 H           3.1760    2.4031    0.0000 H       1  UNL1        0.0278
     52 H          10.6603   -4.9400    0.0000 H       1  UNL1        0.0622
     53 H           4.2690    4.7500    0.0000 H       1  UNL1        0.0622
     54 H          11.5263   -6.6800    0.0000 H       1  UNL1        0.0689
     55 H           2.3291    4.6300    0.0000 H       1  UNL1        0.0689
     56 H          14.4344   -6.0969    0.0000 H       1  UNL1        0.0661
     57 H          14.6613   -5.2500    0.0000 H       1  UNL1        0.0661
     58 H          13.8144   -5.0231    0.0000 H       1  UNL1        0.0661
     59 H           2.0000    7.0600    0.0000 H       1  UNL1        0.2954
@<TRIPOS>BOND
     1     1    27    1
     2     1    29    1
     3     2    27    2
     4     3    28    1
     5     3    59    1
     6     4    28    2
     7     5     7    2
     8     5     8    1
     9     5    14    1
    10     6     9    2
    11     6    10    1
    12     6    16    1
    13     7    12    1
    14     7    30    1
    15     8    15    2
    16     8    31    1
    17     9    13    1
    18     9    32    1
    19    10    19    2
    20    10    33    1
    21    11    17    2
    22    11    21    1
    23    11    23    1
    24    12    13    2
    25    12    34    1
    26    13    35    1
    27    14    36    1
    28    14    37    1
    29    14    38    1
    30    15    17    1
    31    15    39    1
    32    16    40    1
    33    16    41    1
    34    16    42    1
    35    17    43    1
    36    18    20    2
    37    18    22    1
    38    18    24    1
    39    19    20    1
    40    19    44    1
    41    20    45    1
    42    21    46    1
    43    21    47    1
    44    21    48    1
    45    22    49    1
    46    22    50    1
    47    22    51    1
    48    23    25    2
    49    23    52    1
    50    24    26    2
    51    24    53    1
    52    25    27    1
    53    25    54    1
    54    26    28    1
    55    26    55    1
    56    29    56    1
    57    29    57    1
    58    29    58    1
