@<TRIPOS>MOLECULE
IMPHY006963
 38 39 0 0 0
SMALL
GASTEIGER

@<TRIPOS>ATOM
      1 O           2.8660   -5.0000    0.0000 O.3     1  UNL1       -0.5068
      2 O           4.5981    5.0000    0.0000 O.3     1  UNL1       -0.5068
      3 C           2.8660   -1.0000    0.0000 C.3     1  UNL1       -0.0027
      4 C           4.5981    1.0000    0.0000 C.3     1  UNL1       -0.0027
      5 C           3.7320   -0.5000    0.0000 C.2     1  UNL1       -0.0472
      6 C           3.7320    0.5000    0.0000 C.2     1  UNL1       -0.0472
      7 C           2.8660   -2.0000    0.0000 C.ar    1  UNL1       -0.0428
      8 C           4.5981    2.0000    0.0000 C.ar    1  UNL1       -0.0428
      9 C           2.0000   -2.5000    0.0000 C.ar    1  UNL1       -0.0548
     10 C           5.4641    2.5000    0.0000 C.ar    1  UNL1       -0.0548
     11 C           3.7320   -2.5000    0.0000 C.ar    1  UNL1       -0.0548
     12 C           3.7320    2.5000    0.0000 C.ar    1  UNL1       -0.0548
     13 C           4.5981   -1.0000    0.0000 C.2     1  UNL1       -0.0949
     14 C           2.8660    1.0000    0.0000 C.2     1  UNL1       -0.0949
     15 C           2.0000   -3.5000    0.0000 C.ar    1  UNL1       -0.0199
     16 C           5.4641    3.5000    0.0000 C.ar    1  UNL1       -0.0199
     17 C           3.7320   -3.5000    0.0000 C.ar    1  UNL1       -0.0199
     18 C           3.7320    3.5000    0.0000 C.ar    1  UNL1       -0.0199
     19 C           4.5981    4.0000    0.0000 C.ar    1  UNL1        0.1169
     20 C           2.8660   -4.0000    0.0000 C.ar    1  UNL1        0.1169
     21 H           2.6540   -0.4174    0.0000 H       1  UNL1        0.0361
     22 H           2.2554   -1.1077    0.0000 H       1  UNL1        0.0361
     23 H           4.8101    0.4174    0.0000 H       1  UNL1        0.0361
     24 H           5.2087    1.1077    0.0000 H       1  UNL1        0.0361
     25 H           1.4631   -2.1900    0.0000 H       1  UNL1        0.0622
     26 H           6.0010    2.1900    0.0000 H       1  UNL1        0.0622
     27 H           4.2690   -2.1900    0.0000 H       1  UNL1        0.0622
     28 H           3.1951    2.1900    0.0000 H       1  UNL1        0.0622
     29 H           2.8660    1.6200    0.0000 H       1  UNL1        0.0538
     30 H           2.3291    0.6900    0.0000 H       1  UNL1        0.0538
     31 H           4.5981   -1.6200    0.0000 H       1  UNL1        0.0538
     32 H           5.1350   -0.6900    0.0000 H       1  UNL1        0.0538
     33 H           1.4631   -3.8100    0.0000 H       1  UNL1        0.0654
     34 H           6.0010    3.8100    0.0000 H       1  UNL1        0.0654
     35 H           4.2690   -3.8100    0.0000 H       1  UNL1        0.0654
     36 H           3.1951    3.8100    0.0000 H       1  UNL1        0.0654
     37 H           2.3291   -5.3100    0.0000 H       1  UNL1        0.2921
     38 H           5.1350    5.3100    0.0000 H       1  UNL1        0.2921
@<TRIPOS>BOND
     1     1    20    1
     2     1    37    1
     3     2    19    1
     4     2    38    1
     5     3     5    1
     6     3     7    1
     7     3    21    1
     8     3    22    1
     9     4     6    1
    10     4     8    1
    11     4    23    1
    12     4    24    1
    13     5     6    1
    14     5    13    2
    15     6    14    2
    16     7     9   ar
    17     7    11   ar
    18     8    10   ar
    19     8    12   ar
    20     9    15   ar
    21     9    25    1
    22    10    16   ar
    23    10    26    1
    24    11    17   ar
    25    11    27    1
    26    12    18   ar
    27    12    28    1
    28    13    31    1
    29    13    32    1
    30    14    29    1
    31    14    30    1
    32    15    20   ar
    33    15    33    1
    34    16    19   ar
    35    16    34    1
    36    17    20   ar
    37    17    35    1
    38    18    19   ar
    39    18    36    1
