@<TRIPOS>MOLECULE
IMPHY015803
 161 170 0 0 0
SMALL
GASTEIGER

@<TRIPOS>ATOM
      1 O           5.5982    6.7751    0.0000 O.3     1  UNL1       -0.3516
      2 O           5.4440    7.8621    0.0000 O.3     1  UNL1       -0.4572
      3 O          12.0262    1.4206    0.0000 O.3     1  UNL1       -0.3454
      4 O          11.1602   -0.0794    0.0000 O.3     1  UNL1       -0.3405
      5 O           4.4218    9.2603    0.0000 O.2     1  UNL1       -0.2512
      6 O          13.7583    0.4206    0.0000 O.3     1  UNL1       -0.3841
      7 O          13.7583   -1.5794    0.0000 O.3     1  UNL1       -0.3864
      8 O          12.0262   -2.5794    0.0000 O.3     1  UNL1       -0.3401
      9 O           9.4281   -1.0794    0.0000 O.3     1  UNL1       -0.3924
     10 O          10.2942   -2.5794    0.0000 O.3     1  UNL1       -0.3405
     11 O          12.0262   -4.5794    0.0000 O.3     1  UNL1       -0.3377
     12 O          10.2942   -5.5794    0.0000 O.3     1  UNL1       -0.3401
     13 O           8.5621   -4.5794    0.0000 O.3     1  UNL1       -0.3865
     14 O          12.0262   -6.3115    0.0000 O.3     1  UNL1       -0.3405
     15 O           8.5621   -1.5794    0.0000 O.3     1  UNL1       -0.3924
     16 O           8.5621   -5.5794    0.0000 O.3     1  UNL1       -0.3461
     17 O          14.0262   -4.5794    0.0000 O.3     1  UNL1       -0.3841
     18 O          15.0262   -6.3115    0.0000 O.3     1  UNL1       -0.3864
     19 O          10.2942   -7.5794    0.0000 O.3     1  UNL1       -0.3841
     20 O          14.0263   -8.0435    0.0000 O.3     1  UNL1       -0.3865
     21 O           8.5621   -8.5794    0.0000 O.3     1  UNL1       -0.3864
     22 O           6.8300   -7.5794    0.0000 O.3     1  UNL1       -0.3869
     23 O          12.5263   -8.9095    0.0000 O.3     1  UNL1       -0.3924
     24 N           3.9370    5.6875    0.0000 N.3     1  UNL1       -0.2856
     25 C           6.6742    4.5444    0.0000 C.3     1  UNL1       -0.0233
     26 C           7.5383    5.0477    0.0000 C.3     1  UNL1       -0.0298
     27 C           5.9346    5.2086    0.0000 C.3     1  UNL1       -0.0024
     28 C           8.4062    4.5510    0.0000 C.3     1  UNL1       -0.0343
     29 C           8.4101    3.5510    0.0000 C.3     1  UNL1       -0.0323
     30 C           6.3362    6.1179    0.0000 C.3     1  UNL1        0.0651
     31 C           9.3061    3.0198    0.0000 C.3     1  UNL1       -0.0260
     32 C           7.3253    6.0187    0.0000 C.3     1  UNL1       -0.0226
     33 C           6.6780    3.5444    0.0000 C.3     1  UNL1       -0.0467
     34 C           4.9518    5.3115    0.0000 C.3     1  UNL1        0.0082
     35 C           7.5460    3.0477    0.0000 C.3     1  UNL1       -0.0489
     36 C          10.2102    3.5372    0.0000 C.3     1  UNL1       -0.0330
     37 C           9.2981    5.0891    0.0000 C.3     1  UNL1       -0.0494
     38 C           4.7443    6.2777    0.0000 C.3     1  UNL1        0.1609
     39 C           5.8101    4.0410    0.0000 C.3     1  UNL1       -0.0590
     40 C          10.2061    4.5788    0.0000 C.3     1  UNL1       -0.0494
     41 C           9.2852    1.9350    0.0000 C.3     1  UNL1       -0.0448
     42 C          11.1560    3.0056    0.0000 C.3     1  UNL1       -0.0232
     43 C           8.4381    2.5232    0.0000 C.3     1  UNL1       -0.0590
     44 C           4.6368    7.2719    0.0000 C.3     1  UNL1        0.1458
     45 C           4.7451    4.3331    0.0000 C.3     1  UNL1       -0.0581
     46 C          10.2185    1.3817    0.0000 C.3     1  UNL1       -0.0260
     47 C          11.1602    1.9206    0.0000 C.3     1  UNL1        0.0621
     48 C           3.7220    7.6759    0.0000 C.3     1  UNL1       -0.0078
     49 C           3.0223    6.0915    0.0000 C.3     1  UNL1        0.0012
     50 C           2.9148    7.0857    0.0000 C.3     1  UNL1       -0.0278
     51 C           2.0000    7.4897    0.0000 C.3     1  UNL1       -0.0611
     52 C          12.0262    0.4206    0.0000 C.3     1  UNL1        0.1882
     53 C           5.3365    8.8563    0.0000 C.2     1  UNL1        0.3043
     54 C          12.8922   -0.0794    0.0000 C.3     1  UNL1        0.1341
     55 C           6.1438    9.4465    0.0000 C.3     1  UNL1        0.0332
     56 C          12.8922   -1.0794    0.0000 C.3     1  UNL1        0.1144
     57 C          11.1602   -1.0794    0.0000 C.3     1  UNL1        0.1134
     58 C          12.0262   -1.5794    0.0000 C.3     1  UNL1        0.1184
     59 C          10.2942   -1.5794    0.0000 C.3     1  UNL1        0.0730
     60 C          11.1602   -3.0794    0.0000 C.3     1  UNL1        0.1888
     61 C          11.1602   -4.0794    0.0000 C.3     1  UNL1        0.1410
     62 C          10.2942   -4.5794    0.0000 C.3     1  UNL1        0.1209
     63 C           9.4281   -3.0794    0.0000 C.3     1  UNL1        0.1130
     64 C           9.4281   -4.0794    0.0000 C.3     1  UNL1        0.1123
     65 C           8.5621   -2.5794    0.0000 C.3     1  UNL1        0.0730
     66 C          12.5263   -5.4454    0.0000 C.3     1  UNL1        0.1885
     67 C           9.4281   -6.0794    0.0000 C.3     1  UNL1        0.1880
     68 C          13.5262   -5.4454    0.0000 C.3     1  UNL1        0.1341
     69 C          14.0262   -6.3115    0.0000 C.3     1  UNL1        0.1141
     70 C           9.4281   -7.0794    0.0000 C.3     1  UNL1        0.1341
     71 C          12.5263   -7.1775    0.0000 C.3     1  UNL1        0.1130
     72 C          13.5263   -7.1774    0.0000 C.3     1  UNL1        0.1119
     73 C           8.5621   -7.5794    0.0000 C.3     1  UNL1        0.1137
     74 C           7.6961   -6.0794    0.0000 C.3     1  UNL1        0.0792
     75 C           7.6961   -7.0794    0.0000 C.3     1  UNL1        0.1069
     76 C          12.0262   -8.0435    0.0000 C.3     1  UNL1        0.0730
     77 H           8.2234    5.5508    0.0000 H       1  UNL1        0.0310
     78 H           5.5895    4.4318    0.0000 H       1  UNL1        0.0335
     79 H           8.3964    5.4010    0.0000 H       1  UNL1        0.0306
     80 H           9.1478    3.9732    0.0000 H       1  UNL1        0.0309
     81 H           6.6779    6.8962    0.0000 H       1  UNL1        0.0600
     82 H           7.9415    6.0871    0.0000 H       1  UNL1        0.0293
     83 H           7.3220    6.6387    0.0000 H       1  UNL1        0.0293
     84 H           6.0670    3.6497    0.0000 H       1  UNL1        0.0271
     85 H           6.4682    2.9609    0.0000 H       1  UNL1        0.0271
     86 H           4.3318    5.3104    0.0000 H       1  UNL1        0.0344
     87 H           7.1493    2.5712    0.0000 H       1  UNL1        0.0268
     88 H           7.9463    2.5743    0.0000 H       1  UNL1        0.0268
     89 H          10.9430    3.9678    0.0000 H       1  UNL1        0.0307
     90 H           9.6899    5.5697    0.0000 H       1  UNL1        0.0268
     91 H           8.8917    5.5574    0.0000 H       1  UNL1        0.0268
     92 H           5.4980    4.5768    0.0000 H       1  UNL1        0.0235
     93 H           5.2744    3.7290    0.0000 H       1  UNL1        0.0235
     94 H           6.1222    3.5053    0.0000 H       1  UNL1        0.0235
     95 H          10.8174    4.4751    0.0000 H       1  UNL1        0.0268
     96 H          10.4129    5.1633    0.0000 H       1  UNL1        0.0268
     97 H           8.6765    2.0529    0.0000 H       1  UNL1        0.0271
     98 H           9.0649    1.3555    0.0000 H       1  UNL1        0.0271
     99 H          11.7673    2.9018    0.0000 H       1  UNL1        0.0293
    100 H          11.3628    3.5901    0.0000 H       1  UNL1        0.0293
    101 H           8.1302    3.0613    0.0000 H       1  UNL1        0.0235
    102 H           7.9000    2.2152    0.0000 H       1  UNL1        0.0235
    103 H           8.7460    1.9850    0.0000 H       1  UNL1        0.0235
    104 H           4.5701    7.8883    0.0000 H       1  UNL1        0.0777
    105 H           4.1385    4.4612    0.0000 H       1  UNL1        0.0234
    106 H           4.6170    3.7265    0.0000 H       1  UNL1        0.0234
    107 H           5.3517    4.2050    0.0000 H       1  UNL1        0.0234
    108 H           9.8157    0.9104    0.0000 H       1  UNL1        0.0290
    109 H          10.6139    0.9042    0.0000 H       1  UNL1        0.0290
    110 H          11.1590    1.3006    0.0000 H       1  UNL1        0.0597
    111 H           3.6865    5.1203    0.0000 H       1  UNL1        0.1247
    112 H           4.0672    8.1909    0.0000 H       1  UNL1        0.0305
    113 H           3.2747    8.1052    0.0000 H       1  UNL1        0.0305
    114 H           2.4036    6.1329    0.0000 H       1  UNL1        0.0427
    115 H           2.8741    5.4894    0.0000 H       1  UNL1        0.0427
    116 H           2.4143    6.7198    0.0000 H       1  UNL1        0.0312
    117 H           2.2505    8.0568    0.0000 H       1  UNL1        0.0233
    118 H           1.4328    7.7402    0.0000 H       1  UNL1        0.0233
    119 H           1.7495    6.9225    0.0000 H       1  UNL1        0.0233
    120 H          12.5631    0.7306    0.0000 H       1  UNL1        0.0937
    121 H          13.4292   -0.3894    0.0000 H       1  UNL1        0.0671
    122 H           6.5097    8.9460    0.0000 H       1  UNL1        0.0342
    123 H           6.6443    9.8124    0.0000 H       1  UNL1        0.0342
    124 H           5.7779    9.9470    0.0000 H       1  UNL1        0.0342
    125 H          13.4292   -0.7694    0.0000 H       1  UNL1        0.0648
    126 H          10.6232   -0.7694    0.0000 H       1  UNL1        0.0647
    127 H          12.5631   -1.8894    0.0000 H       1  UNL1        0.0651
    128 H          13.7583    1.0406    0.0000 H       1  UNL1        0.2101
    129 H           9.8956   -2.0544    0.0000 H       1  UNL1        0.0584
    130 H          10.6927   -2.0544    0.0000 H       1  UNL1        0.0584
    131 H          14.2952   -1.2694    0.0000 H       1  UNL1        0.2100
    132 H          11.1602   -2.4594    0.0000 H       1  UNL1        0.0938
    133 H           9.4281   -0.4594    0.0000 H       1  UNL1        0.2095
    134 H          11.1602   -4.6994    0.0000 H       1  UNL1        0.0675
    135 H           9.7572   -4.8894    0.0000 H       1  UNL1        0.0651
    136 H           9.4281   -2.4594    0.0000 H       1  UNL1        0.0647
    137 H           8.8912   -3.7694    0.0000 H       1  UNL1        0.0647
    138 H           7.9515   -2.4718    0.0000 H       1  UNL1        0.0584
    139 H           8.3500   -3.1620    0.0000 H       1  UNL1        0.0584
    140 H          12.8363   -4.9084    0.0000 H       1  UNL1        0.0938
    141 H           8.0252   -4.2694    0.0000 H       1  UNL1        0.2100
    142 H           9.4281   -5.4594    0.0000 H       1  UNL1        0.0937
    143 H          14.1462   -5.4454    0.0000 H       1  UNL1        0.0671
    144 H          14.3362   -6.8484    0.0000 H       1  UNL1        0.0648
    145 H           8.0252   -1.2694    0.0000 H       1  UNL1        0.2095
    146 H           9.4281   -7.6994    0.0000 H       1  UNL1        0.0671
    147 H          11.9063   -7.1775    0.0000 H       1  UNL1        0.0647
    148 H          14.1463   -7.1774    0.0000 H       1  UNL1        0.0647
    149 H           8.0252   -7.8894    0.0000 H       1  UNL1        0.0647
    150 H          14.6462   -4.5794    0.0000 H       1  UNL1        0.2101
    151 H           7.4840   -5.4968    0.0000 H       1  UNL1        0.0587
    152 H           7.0855   -6.1871    0.0000 H       1  UNL1        0.0587
    153 H           7.1591   -6.7694    0.0000 H       1  UNL1        0.0643
    154 H          11.5513   -7.6450    0.0000 H       1  UNL1        0.0584
    155 H          11.5513   -8.4420    0.0000 H       1  UNL1        0.0584
    156 H          15.3362   -5.7745    0.0000 H       1  UNL1        0.2100
    157 H          10.2942   -8.1994    0.0000 H       1  UNL1        0.2101
    158 H          14.6462   -8.0435    0.0000 H       1  UNL1        0.2100
    159 H           8.0252   -8.8894    0.0000 H       1  UNL1        0.2100
    160 H           6.2931   -7.2694    0.0000 H       1  UNL1        0.2100
    161 H          12.2162   -9.4465    0.0000 H       1  UNL1        0.2095
@<TRIPOS>BOND
     1     1    30    1
     2    38     1    1
     3    44     2    1
     4     2    53    1
     5    47     3    1
     6    52     3    1
     7     4    52    1
     8     4    57    1
     9     5    53    2
    10    54     6    1
    11     6   128    1
    12    56     7    1
    13     7   131    1
    14    58     8    1
    15    60     8    1
    16     9    59    1
    17     9   133    1
    18    10    60    1
    19    10    63    1
    20    61    11    1
    21    66    11    1
    22    62    12    1
    23    67    12    1
    24    64    13    1
    25    13   141    1
    26    14    66    1
    27    14    71    1
    28    15    65    1
    29    15   145    1
    30    16    67    1
    31    16    74    1
    32    68    17    1
    33    17   150    1
    34    69    18    1
    35    18   156    1
    36    70    19    1
    37    19   157    1
    38    72    20    1
    39    20   158    1
    40    73    21    1
    41    21   159    1
    42    75    22    1
    43    22   160    1
    44    23    76    1
    45    23   161    1
    46    24    38    1
    47    24    49    1
    48    24   111    1
    49    25    26    1
    50    25    27    1
    51    25    33    1
    52    25    39    1
    53    26    28    1
    54    26    32    1
    55    26    77    1
    56    27    30    1
    57    27    34    1
    58    27    78    1
    59    28    29    1
    60    28    37    1
    61    28    79    1
    62    29    31    1
    63    29    35    1
    64    29    80    1
    65    30    32    1
    66    30    81    1
    67    31    36    1
    68    31    41    1
    69    31    43    1
    70    32    82    1
    71    32    83    1
    72    33    35    1
    73    33    84    1
    74    33    85    1
    75    34    38    1
    76    34    45    1
    77    34    86    1
    78    35    87    1
    79    35    88    1
    80    36    40    1
    81    36    42    1
    82    36    89    1
    83    37    40    1
    84    37    90    1
    85    37    91    1
    86    38    44    1
    87    39    92    1
    88    39    93    1
    89    39    94    1
    90    40    95    1
    91    40    96    1
    92    41    46    1
    93    41    97    1
    94    41    98    1
    95    42    47    1
    96    42    99    1
    97    42   100    1
    98    43   101    1
    99    43   102    1
   100    43   103    1
   101    44    48    1
   102    44   104    1
   103    45   105    1
   104    45   106    1
   105    45   107    1
   106    46    47    1
   107    46   108    1
   108    46   109    1
   109    47   110    1
   110    48    50    1
   111    48   112    1
   112    48   113    1
   113    49    50    1
   114    49   114    1
   115    49   115    1
   116    50    51    1
   117    50   116    1
   118    51   117    1
   119    51   118    1
   120    51   119    1
   121    52    54    1
   122    52   120    1
   123    53    55    1
   124    54    56    1
   125    54   121    1
   126    55   122    1
   127    55   123    1
   128    55   124    1
   129    56    58    1
   130    56   125    1
   131    57    58    1
   132    57    59    1
   133    57   126    1
   134    58   127    1
   135    59   129    1
   136    59   130    1
   137    60    61    1
   138    60   132    1
   139    61    62    1
   140    61   134    1
   141    62    64    1
   142    62   135    1
   143    63    64    1
   144    63    65    1
   145    63   136    1
   146    64   137    1
   147    65   138    1
   148    65   139    1
   149    66    68    1
   150    66   140    1
   151    67    70    1
   152    67   142    1
   153    68    69    1
   154    68   143    1
   155    69    72    1
   156    69   144    1
   157    70    73    1
   158    70   146    1
   159    71    72    1
   160    71    76    1
   161    71   147    1
   162    72   148    1
   163    73    75    1
   164    73   149    1
   165    74    75    1
   166    74   151    1
   167    74   152    1
   168    75   153    1
   169    76   154    1
   170    76   155    1
