@<TRIPOS>MOLECULE
IMPHY000442
 120 119 0 0 0
SMALL
GASTEIGER

@<TRIPOS>ATOM
      1 O          21.0526   -0.0950    0.0000 O.3     1  UNL1       -0.4619
      2 O          17.5885   -0.0950    0.0000 O.3     1  UNL1       -0.4619
      3 O          21.9186    1.4050    0.0000 O.2     1  UNL1       -0.2509
      4 O          16.7224    1.4050    0.0000 O.2     1  UNL1       -0.2509
      5 O          19.3205   -1.0950    0.0000 O.3     1  UNL1       -0.3850
      6 C          29.7128   -0.0950    0.0000 C.3     1  UNL1       -0.0531
      7 C           8.9282   -0.0950    0.0000 C.3     1  UNL1       -0.0531
      8 C          28.8468    0.4050    0.0000 C.3     1  UNL1       -0.0531
      9 C           9.7942    0.4050    0.0000 C.3     1  UNL1       -0.0531
     10 C          30.5788    0.4050    0.0000 C.3     1  UNL1       -0.0531
     11 C           8.0622    0.4050    0.0000 C.3     1  UNL1       -0.0531
     12 C          27.9808   -0.0950    0.0000 C.3     1  UNL1       -0.0531
     13 C          10.6603   -0.0950    0.0000 C.3     1  UNL1       -0.0531
     14 C          31.4449   -0.0950    0.0000 C.3     1  UNL1       -0.0531
     15 C           7.1962   -0.0950    0.0000 C.3     1  UNL1       -0.0531
     16 C          11.5263    0.4050    0.0000 C.3     1  UNL1       -0.0531
     17 C          27.1147    0.4050    0.0000 C.3     1  UNL1       -0.0531
     18 C          32.3109    0.4050    0.0000 C.3     1  UNL1       -0.0531
     19 C           6.3301    0.4050    0.0000 C.3     1  UNL1       -0.0531
     20 C          26.2487   -0.0950    0.0000 C.3     1  UNL1       -0.0531
     21 C          12.3923   -0.0950    0.0000 C.3     1  UNL1       -0.0531
     22 C          33.1769   -0.0950    0.0000 C.3     1  UNL1       -0.0531
     23 C           5.4641   -0.0950    0.0000 C.3     1  UNL1       -0.0531
     24 C          25.3827    0.4050    0.0000 C.3     1  UNL1       -0.0530
     25 C          13.2583    0.4050    0.0000 C.3     1  UNL1       -0.0530
     26 C          34.0429    0.4050    0.0000 C.3     1  UNL1       -0.0531
     27 C           4.5981    0.4050    0.0000 C.3     1  UNL1       -0.0531
     28 C          24.5167   -0.0950    0.0000 C.3     1  UNL1       -0.0526
     29 C          14.1244   -0.0950    0.0000 C.3     1  UNL1       -0.0526
     30 C           3.7320   -0.0950    0.0000 C.3     1  UNL1       -0.0533
     31 C          34.9090   -0.0950    0.0000 C.3     1  UNL1       -0.0533
     32 C          23.6506    0.4050    0.0000 C.3     1  UNL1       -0.0430
     33 C          14.9904    0.4050    0.0000 C.3     1  UNL1       -0.0430
     34 C           2.8660    0.4050    0.0000 C.3     1  UNL1       -0.0559
     35 C          35.7750    0.4050    0.0000 C.3     1  UNL1       -0.0559
     36 C          15.8564   -0.0950    0.0000 C.3     1  UNL1        0.0449
     37 C          22.7846   -0.0950    0.0000 C.3     1  UNL1        0.0449
     38 C           2.0000   -0.0950    0.0000 C.3     1  UNL1       -0.0653
     39 C          36.6410   -0.0950    0.0000 C.3     1  UNL1       -0.0653
     40 C          21.9186    0.4050    0.0000 C.2     1  UNL1        0.3072
     41 C          16.7224    0.4050    0.0000 C.2     1  UNL1        0.3072
     42 C          19.3205   -0.0950    0.0000 C.3     1  UNL1        0.1231
     43 C          20.1865    0.4050    0.0000 C.3     1  UNL1        0.1215
     44 C          18.4545    0.4050    0.0000 C.3     1  UNL1        0.1215
     45 H           8.5297   -0.5699    0.0000 H       1  UNL1        0.0265
     46 H           9.3267   -0.5699    0.0000 H       1  UNL1        0.0265
     47 H          29.3143   -0.5699    0.0000 H       1  UNL1        0.0265
     48 H          30.1113   -0.5699    0.0000 H       1  UNL1        0.0265
     49 H          29.2453    0.8799    0.0000 H       1  UNL1        0.0265
     50 H          28.4483    0.8799    0.0000 H       1  UNL1        0.0265
     51 H          10.1928    0.8799    0.0000 H       1  UNL1        0.0265
     52 H           9.3957    0.8799    0.0000 H       1  UNL1        0.0265
     53 H          30.9774    0.8799    0.0000 H       1  UNL1        0.0265
     54 H          30.1803    0.8799    0.0000 H       1  UNL1        0.0265
     55 H           8.4607    0.8799    0.0000 H       1  UNL1        0.0265
     56 H           7.6636    0.8799    0.0000 H       1  UNL1        0.0265
     57 H          27.5822   -0.5699    0.0000 H       1  UNL1        0.0265
     58 H          28.3793   -0.5699    0.0000 H       1  UNL1        0.0265
     59 H          10.2617   -0.5699    0.0000 H       1  UNL1        0.0265
     60 H          11.0588   -0.5699    0.0000 H       1  UNL1        0.0265
     61 H           6.7976   -0.5699    0.0000 H       1  UNL1        0.0265
     62 H           7.5947   -0.5699    0.0000 H       1  UNL1        0.0265
     63 H          31.0463   -0.5699    0.0000 H       1  UNL1        0.0265
     64 H          31.8434   -0.5699    0.0000 H       1  UNL1        0.0265
     65 H          11.9248    0.8799    0.0000 H       1  UNL1        0.0265
     66 H          11.1278    0.8799    0.0000 H       1  UNL1        0.0265
     67 H          27.5133    0.8799    0.0000 H       1  UNL1        0.0265
     68 H          26.7162    0.8799    0.0000 H       1  UNL1        0.0265
     69 H          32.7094    0.8799    0.0000 H       1  UNL1        0.0265
     70 H          31.9124    0.8799    0.0000 H       1  UNL1        0.0265
     71 H           6.7287    0.8799    0.0000 H       1  UNL1        0.0265
     72 H           5.9316    0.8799    0.0000 H       1  UNL1        0.0265
     73 H          11.9938   -0.5699    0.0000 H       1  UNL1        0.0265
     74 H          12.7908   -0.5699    0.0000 H       1  UNL1        0.0265
     75 H          25.8502   -0.5699    0.0000 H       1  UNL1        0.0265
     76 H          26.6472   -0.5699    0.0000 H       1  UNL1        0.0265
     77 H           5.0656   -0.5699    0.0000 H       1  UNL1        0.0265
     78 H           5.8626   -0.5699    0.0000 H       1  UNL1        0.0265
     79 H          32.7784   -0.5699    0.0000 H       1  UNL1        0.0265
     80 H          33.5754   -0.5699    0.0000 H       1  UNL1        0.0265
     81 H          25.7812    0.8799    0.0000 H       1  UNL1        0.0265
     82 H          24.9842    0.8799    0.0000 H       1  UNL1        0.0265
     83 H          13.6569    0.8799    0.0000 H       1  UNL1        0.0265
     84 H          12.8598    0.8799    0.0000 H       1  UNL1        0.0265
     85 H           4.9966    0.8799    0.0000 H       1  UNL1        0.0265
     86 H           4.1996    0.8799    0.0000 H       1  UNL1        0.0265
     87 H          34.4415    0.8799    0.0000 H       1  UNL1        0.0265
     88 H          33.6444    0.8799    0.0000 H       1  UNL1        0.0265
     89 H          24.1181   -0.5699    0.0000 H       1  UNL1        0.0265
     90 H          24.9152   -0.5699    0.0000 H       1  UNL1        0.0265
     91 H          13.7258   -0.5699    0.0000 H       1  UNL1        0.0265
     92 H          14.5229   -0.5699    0.0000 H       1  UNL1        0.0265
     93 H          34.5104   -0.5699    0.0000 H       1  UNL1        0.0265
     94 H          35.3075   -0.5699    0.0000 H       1  UNL1        0.0265
     95 H           3.3335   -0.5699    0.0000 H       1  UNL1        0.0265
     96 H           4.1306   -0.5699    0.0000 H       1  UNL1        0.0265
     97 H          15.3889    0.8799    0.0000 H       1  UNL1        0.0270
     98 H          14.5919    0.8799    0.0000 H       1  UNL1        0.0270
     99 H          24.0492    0.8799    0.0000 H       1  UNL1        0.0270
    100 H          23.2521    0.8799    0.0000 H       1  UNL1        0.0270
    101 H          36.1735    0.8799    0.0000 H       1  UNL1        0.0263
    102 H          35.3765    0.8799    0.0000 H       1  UNL1        0.0263
    103 H           3.2646    0.8799    0.0000 H       1  UNL1        0.0263
    104 H           2.4675    0.8799    0.0000 H       1  UNL1        0.0263
    105 H          15.4579   -0.5699    0.0000 H       1  UNL1        0.0377
    106 H          16.2549   -0.5699    0.0000 H       1  UNL1        0.0377
    107 H          22.3861   -0.5699    0.0000 H       1  UNL1        0.0377
    108 H          23.1831   -0.5699    0.0000 H       1  UNL1        0.0377
    109 H           1.6900    0.4419    0.0000 H       1  UNL1        0.0230
    110 H           1.4631   -0.4050    0.0000 H       1  UNL1        0.0230
    111 H           2.3100   -0.6319    0.0000 H       1  UNL1        0.0230
    112 H          36.3310   -0.6319    0.0000 H       1  UNL1        0.0230
    113 H          37.1780   -0.4050    0.0000 H       1  UNL1        0.0230
    114 H          36.9510    0.4419    0.0000 H       1  UNL1        0.0230
    115 H          19.8574   -0.4050    0.0000 H       1  UNL1        0.0662
    116 H          18.8530    0.8799    0.0000 H       1  UNL1        0.0725
    117 H          18.0560    0.8799    0.0000 H       1  UNL1        0.0725
    118 H          20.5851    0.8799    0.0000 H       1  UNL1        0.0725
    119 H          19.7880    0.8799    0.0000 H       1  UNL1        0.0725
    120 H          18.7836   -1.4050    0.0000 H       1  UNL1        0.2101
@<TRIPOS>BOND
     1     1    40    1
     2     1    43    1
     3     2    41    1
     4     2    44    1
     5     3    40    2
     6     4    41    2
     7     5    42    1
     8     5   120    1
     9     6     8    1
    10     6    10    1
    11     6    47    1
    12     6    48    1
    13     7     9    1
    14     7    11    1
    15     7    45    1
    16     7    46    1
    17     8    12    1
    18     8    49    1
    19     8    50    1
    20     9    13    1
    21     9    51    1
    22     9    52    1
    23    10    14    1
    24    10    53    1
    25    10    54    1
    26    11    15    1
    27    11    55    1
    28    11    56    1
    29    12    17    1
    30    12    57    1
    31    12    58    1
    32    13    16    1
    33    13    59    1
    34    13    60    1
    35    14    18    1
    36    14    63    1
    37    14    64    1
    38    15    19    1
    39    15    61    1
    40    15    62    1
    41    16    21    1
    42    16    65    1
    43    16    66    1
    44    17    20    1
    45    17    67    1
    46    17    68    1
    47    18    22    1
    48    18    69    1
    49    18    70    1
    50    19    23    1
    51    19    71    1
    52    19    72    1
    53    20    24    1
    54    20    75    1
    55    20    76    1
    56    21    25    1
    57    21    73    1
    58    21    74    1
    59    22    26    1
    60    22    79    1
    61    22    80    1
    62    23    27    1
    63    23    77    1
    64    23    78    1
    65    24    28    1
    66    24    81    1
    67    24    82    1
    68    25    29    1
    69    25    83    1
    70    25    84    1
    71    26    31    1
    72    26    87    1
    73    26    88    1
    74    27    30    1
    75    27    85    1
    76    27    86    1
    77    28    32    1
    78    28    89    1
    79    28    90    1
    80    29    33    1
    81    29    91    1
    82    29    92    1
    83    30    34    1
    84    30    95    1
    85    30    96    1
    86    31    35    1
    87    31    93    1
    88    31    94    1
    89    32    37    1
    90    32    99    1
    91    32   100    1
    92    33    36    1
    93    33    97    1
    94    33    98    1
    95    34    38    1
    96    34   103    1
    97    34   104    1
    98    35    39    1
    99    35   101    1
   100    35   102    1
   101    36    41    1
   102    36   105    1
   103    36   106    1
   104    37    40    1
   105    37   107    1
   106    37   108    1
   107    38   109    1
   108    38   110    1
   109    38   111    1
   110    39   112    1
   111    39   113    1
   112    39   114    1
   113    42    43    1
   114    42    44    1
   115    42   115    1
   116    43   118    1
   117    43   119    1
   118    44   116    1
   119    44   117    1
