@<TRIPOS>MOLECULE
IMPHY016377
 20 20 0 0 0
SMALL
GASTEIGER

@<TRIPOS>ATOM
      1 O           2.8090   -0.4897    0.0000 O.2     1  UNL1       -0.4671
      2 O           4.0339   -1.8582    0.0000 O.2     1  UNL1       -0.2972
      3 C           3.6180    0.0981    0.0000 C.ar    1  UNL1        0.1148
      4 C           4.5691   -0.2109    0.0000 C.3     1  UNL1        0.0640
      5 C           3.3090    1.0492    0.0000 C.ar    1  UNL1       -0.0091
      6 C           2.3090    1.0492    0.0000 C.ar    1  UNL1       -0.0207
      7 C           4.7770   -1.1890    0.0000 C.2     1  UNL1        0.1376
      8 C           3.8968    1.8582    0.0000 C.3     1  UNL1       -0.0364
      9 C           2.0000    0.0981    0.0000 C.ar    1  UNL1        0.0923
     10 C           5.7281   -1.4981    0.0000 C.3     1  UNL1       -0.0056
     11 H           5.1887   -0.1893    0.0000 H       1  UNL1        0.0421
     12 H           4.6554    0.4031    0.0000 H       1  UNL1        0.0421
     13 H           1.9446    1.5508    0.0000 H       1  UNL1        0.0652
     14 H           4.3984    1.4938    0.0000 H       1  UNL1        0.0279
     15 H           4.2612    2.3598    0.0000 H       1  UNL1        0.0279
     16 H           3.3952    2.2226    0.0000 H       1  UNL1        0.0279
     17 H           1.4103   -0.0935    0.0000 H       1  UNL1        0.1029
     18 H           5.5365   -2.0877    0.0000 H       1  UNL1        0.0306
     19 H           6.3177   -1.6897    0.0000 H       1  UNL1        0.0306
     20 H           5.9196   -0.9084    0.0000 H       1  UNL1        0.0306
@<TRIPOS>BOND
     1     1     3   ar
     2     1     9   ar
     3     2     7    2
     4     3     4    1
     5     3     5   ar
     6     4     7    1
     7     4    11    1
     8     4    12    1
     9     5     6   ar
    10     5     8    1
    11     6     9   ar
    12     6    13    1
    13     7    10    1
    14     8    14    1
    15     8    15    1
    16     8    16    1
    17     9    17    1
    18    10    18    1
    19    10    19    1
    20    10    20    1
