@<TRIPOS>MOLECULE
IMPHY000746
 81 85 0 0 0
SMALL
GASTEIGER

@<TRIPOS>ATOM
      1 O           2.5357   -2.5933    0.0000 O.3     1  UNL1       -0.3912
      2 O          11.4608    0.4932    0.0000 O.3     1  UNL1       -0.4800
      3 O          10.6064   -1.0134    0.0000 O.2     1  UNL1       -0.2500
      4 C           7.0628   -1.0410    0.0000 C.3     1  UNL1       -0.0228
      5 C           6.1968   -0.5410    0.0000 C.3     1  UNL1       -0.0294
      6 C           7.9288   -0.5410    0.0000 C.3     1  UNL1       -0.0198
      7 C           5.2868   -1.0478    0.0000 C.3     1  UNL1       -0.0252
      8 C           5.2787   -2.0894    0.0000 C.3     1  UNL1       -0.0278
      9 C           7.9288    0.4590    0.0000 C.3     1  UNL1       -0.0129
     10 C           7.0789   -2.0825    0.0000 C.3     1  UNL1       -0.0466
     11 C           6.1968    0.4590    0.0000 C.3     1  UNL1       -0.0486
     12 C           6.1808   -2.6102    0.0000 C.3     1  UNL1       -0.0486
     13 C           4.3433   -2.6391    0.0000 C.3     1  UNL1       -0.0056
     14 C           7.0628    0.9590    0.0000 C.3     1  UNL1       -0.0457
     15 C           8.8228   -1.0756    0.0000 C.3     1  UNL1       -0.0453
     16 C           4.3599   -0.4837    0.0000 C.3     1  UNL1       -0.0447
     17 C           7.7056   -1.8070    0.0000 C.3     1  UNL1       -0.0588
     18 C           8.8228    0.9937    0.0000 C.2     1  UNL1       -0.0527
     19 C           9.7288    0.4799    0.0000 C.3     1  UNL1        0.0888
     20 C           8.2709   -1.4806    0.0000 C.3     1  UNL1       -0.0585
     21 C           5.2945   -0.0478    0.0000 C.3     1  UNL1       -0.0590
     22 C           9.7288   -0.5618    0.0000 C.3     1  UNL1       -0.0329
     23 C           3.4037   -2.0966    0.0000 C.3     1  UNL1        0.0606
     24 C           3.4120   -1.0117    0.0000 C.3     1  UNL1       -0.0258
     25 C          10.6726    1.0151    0.0000 C.3     1  UNL1       -0.0327
     26 C           3.8467   -3.5071    0.0000 C.3     1  UNL1       -0.0572
     27 C           4.8466   -3.5032    0.0000 C.3     1  UNL1       -0.0572
     28 C           8.7977    2.0784    0.0000 C.2     1  UNL1       -0.0778
     29 C           9.7288    2.6353    0.0000 C.3     1  UNL1       -0.0165
     30 C          10.6726    2.1001    0.0000 C.3     1  UNL1       -0.0431
     31 C          10.5987   -0.0135    0.0000 C.2     1  UNL1        0.3150
     32 C          10.2188    3.5071    0.0000 C.3     1  UNL1       -0.0563
     33 C           9.2188    3.4955    0.0000 C.3     1  UNL1       -0.0563
     34 H           6.9329   -0.1160    0.0000 H       1  UNL1        0.0312
     35 H           5.2820   -2.9394    0.0000 H       1  UNL1        0.0312
     36 H           7.9223    1.3090    0.0000 H       1  UNL1        0.0351
     37 H           7.2969   -2.6629    0.0000 H       1  UNL1        0.0271
     38 H           7.6880   -1.9670    0.0000 H       1  UNL1        0.0271
     39 H           5.9847    1.0416    0.0000 H       1  UNL1        0.0268
     40 H           5.5862    0.3514    0.0000 H       1  UNL1        0.0268
     41 H           5.7835   -3.0862    0.0000 H       1  UNL1        0.0268
     42 H           6.5818   -3.0831    0.0000 H       1  UNL1        0.0268
     43 H           7.4613    1.4340    0.0000 H       1  UNL1        0.0271
     44 H           6.6643    1.4340    0.0000 H       1  UNL1        0.0271
     45 H           8.4182   -1.5454    0.0000 H       1  UNL1        0.0271
     46 H           9.2164   -1.5546    0.0000 H       1  UNL1        0.0271
     47 H           4.7681   -0.0171    0.0000 H       1  UNL1        0.0271
     48 H           3.9700   -0.0017    0.0000 H       1  UNL1        0.0271
     49 H           7.2306   -2.2055    0.0000 H       1  UNL1        0.0235
     50 H           8.1041   -2.2820    0.0000 H       1  UNL1        0.0235
     51 H           8.1805   -1.4085    0.0000 H       1  UNL1        0.0235
     52 H           7.6884   -1.6927    0.0000 H       1  UNL1        0.0235
     53 H           8.4830   -2.0632    0.0000 H       1  UNL1        0.0235
     54 H           8.8535   -1.2685    0.0000 H       1  UNL1        0.0235
     55 H           5.9145   -0.0526    0.0000 H       1  UNL1        0.0235
     56 H           5.2993    0.5721    0.0000 H       1  UNL1        0.0235
     57 H           4.6745   -0.0431    0.0000 H       1  UNL1        0.0235
     58 H           9.9379   -1.1455    0.0000 H       1  UNL1        0.0279
     59 H          10.3397   -0.4557    0.0000 H       1  UNL1        0.0279
     60 H           3.4025   -2.7166    0.0000 H       1  UNL1        0.0599
     61 H           3.2075   -0.4264    0.0000 H       1  UNL1        0.0290
     62 H           2.8004   -1.1131    0.0000 H       1  UNL1        0.0290
     63 H          10.8817    0.4314    0.0000 H       1  UNL1        0.0279
     64 H          11.2835    1.1212    0.0000 H       1  UNL1        0.0279
     65 H           4.3109   -3.8153    0.0000 H       1  UNL1        0.0236
     66 H           5.1587   -4.0390    0.0000 H       1  UNL1        0.0236
     67 H           5.3824   -3.1912    0.0000 H       1  UNL1        0.0236
     68 H           3.3085   -3.1992    0.0000 H       1  UNL1        0.0236
     69 H           3.5387   -4.0452    0.0000 H       1  UNL1        0.0236
     70 H           4.3848   -3.8150    0.0000 H       1  UNL1        0.0236
     71 H           8.2549    2.3780    0.0000 H       1  UNL1        0.0577
     72 H          11.2835    1.9940    0.0000 H       1  UNL1        0.0274
     73 H          10.8817    2.6838    0.0000 H       1  UNL1        0.0274
     74 H           2.0000   -2.2812    0.0000 H       1  UNL1        0.2098
     75 H           9.7522    3.8117    0.0000 H       1  UNL1        0.0238
     76 H           8.9027    4.0288    0.0000 H       1  UNL1        0.0238
     77 H           8.6855    3.1793    0.0000 H       1  UNL1        0.0238
     78 H          10.7593    3.2033    0.0000 H       1  UNL1        0.0238
     79 H          10.5226    4.0476    0.0000 H       1  UNL1        0.0238
     80 H           9.6783    3.8108    0.0000 H       1  UNL1        0.0238
     81 H          12.0001    0.1874    0.0000 H       1  UNL1        0.2951
@<TRIPOS>BOND
     1    23     1    1
     2     1    74    1
     3     2    31    1
     4     2    81    1
     5     3    31    2
     6     4     5    1
     7     4     6    1
     8     4    10    1
     9     4    17    1
    10     5     7    1
    11     5    11    1
    12     5    34    1
    13     6     9    1
    14     6    15    1
    15     6    20    1
    16     7     8    1
    17     7    16    1
    18     7    21    1
    19     8    12    1
    20     8    13    1
    21     8    35    1
    22     9    14    1
    23     9    18    1
    24     9    36    1
    25    10    12    1
    26    10    37    1
    27    10    38    1
    28    11    14    1
    29    11    39    1
    30    11    40    1
    31    12    41    1
    32    12    42    1
    33    13    23    1
    34    13    26    1
    35    13    27    1
    36    14    43    1
    37    14    44    1
    38    15    22    1
    39    15    45    1
    40    15    46    1
    41    16    24    1
    42    16    47    1
    43    16    48    1
    44    17    49    1
    45    17    50    1
    46    17    51    1
    47    18    19    1
    48    18    28    2
    49    19    22    1
    50    19    25    1
    51    19    31    1
    52    20    52    1
    53    20    53    1
    54    20    54    1
    55    21    55    1
    56    21    56    1
    57    21    57    1
    58    22    58    1
    59    22    59    1
    60    23    24    1
    61    23    60    1
    62    24    61    1
    63    24    62    1
    64    25    30    1
    65    25    63    1
    66    25    64    1
    67    26    68    1
    68    26    69    1
    69    26    70    1
    70    27    65    1
    71    27    66    1
    72    27    67    1
    73    28    29    1
    74    28    71    1
    75    29    30    1
    76    29    32    1
    77    29    33    1
    78    30    72    1
    79    30    73    1
    80    32    78    1
    81    32    79    1
    82    32    80    1
    83    33    75    1
    84    33    76    1
    85    33    77    1
