@<TRIPOS>MOLECULE
IMPHY003447
 58 63 0 0 0
SMALL
GASTEIGER

@<TRIPOS>ATOM
      1 O           4.6660   -3.5000    0.0000 O.2     1  UNL1       -0.2864
      2 O           4.6660    3.5000    0.0000 O.2     1  UNL1       -0.2864
      3 O           6.4144   -3.5346    0.0000 O.3     1  UNL1       -0.5060
      4 O           6.4144    3.5346    0.0000 O.3     1  UNL1       -0.5060
      5 O           2.9176   -3.5346    0.0000 O.3     1  UNL1       -0.5060
      6 O           2.9176    3.5346    0.0000 O.3     1  UNL1       -0.5060
      7 C           4.6660   -0.5000    0.0000 C.3     1  UNL1        0.0216
      8 C           4.6660    0.5000    0.0000 C.3     1  UNL1        0.0216
      9 C           5.5321    1.0000    0.0000 C.ar    1  UNL1       -0.0245
     10 C           5.5321   -1.0000    0.0000 C.ar    1  UNL1       -0.0245
     11 C           3.8000    1.0000    0.0000 C.ar    1  UNL1       -0.0247
     12 C           3.8000   -1.0000    0.0000 C.ar    1  UNL1       -0.0247
     13 C           5.5321   -2.0000    0.0000 C.ar    1  UNL1        0.0675
     14 C           5.5321    2.0000    0.0000 C.ar    1  UNL1        0.0675
     15 C           3.8000   -2.0000    0.0000 C.ar    1  UNL1        0.0675
     16 C           3.8000    2.0000    0.0000 C.ar    1  UNL1        0.0675
     17 C           4.6660   -2.5000    0.0000 C.2     1  UNL1        0.2007
     18 C           4.6660    2.5000    0.0000 C.2     1  UNL1        0.2007
     19 C           6.4260   -0.4653    0.0000 C.ar    1  UNL1       -0.0541
     20 C           6.4260    0.4653    0.0000 C.ar    1  UNL1       -0.0541
     21 C           2.9061   -0.4653    0.0000 C.ar    1  UNL1       -0.0571
     22 C           2.9061    0.4653    0.0000 C.ar    1  UNL1       -0.0571
     23 C           6.4260    2.5347    0.0000 C.ar    1  UNL1        0.1282
     24 C           6.4260   -2.5347    0.0000 C.ar    1  UNL1        0.1282
     25 C           2.9061    2.5347    0.0000 C.ar    1  UNL1        0.1279
     26 C           2.9061   -2.5347    0.0000 C.ar    1  UNL1        0.1279
     27 C           7.3321    0.9792    0.0000 C.ar    1  UNL1       -0.0467
     28 C           7.3321   -0.9792    0.0000 C.ar    1  UNL1       -0.0467
     29 C           7.3321   -2.0208    0.0000 C.ar    1  UNL1       -0.0165
     30 C           7.3321    2.0208    0.0000 C.ar    1  UNL1       -0.0165
     31 C           2.0000    0.9792    0.0000 C.ar    1  UNL1       -0.0580
     32 C           2.0000   -0.9792    0.0000 C.ar    1  UNL1       -0.0580
     33 C           2.0000   -2.0208    0.0000 C.ar    1  UNL1       -0.0194
     34 C           2.0000    2.0208    0.0000 C.ar    1  UNL1       -0.0194
     35 C           8.1962    0.4758    0.0000 C.3     1  UNL1       -0.0396
     36 C           8.1962   -0.4758    0.0000 C.3     1  UNL1       -0.0396
     37 H           4.1291    0.1900    0.0000 H       1  UNL1        0.0407
     38 H           5.2030   -0.1900    0.0000 H       1  UNL1        0.0407
     39 H           6.4188   -0.1546    0.0000 H       1  UNL1        0.0623
     40 H           6.4188    0.1546    0.0000 H       1  UNL1        0.0623
     41 H           2.9132   -0.1546    0.0000 H       1  UNL1        0.0621
     42 H           2.9132    0.1546    0.0000 H       1  UNL1        0.0621
     43 H           7.8678    2.3329    0.0000 H       1  UNL1        0.0657
     44 H           7.8678   -2.3329    0.0000 H       1  UNL1        0.0657
     45 H           1.4643    0.6671    0.0000 H       1  UNL1        0.0619
     46 H           1.4643   -0.6671    0.0000 H       1  UNL1        0.0619
     47 H           1.4643    2.3329    0.0000 H       1  UNL1        0.0654
     48 H           1.4643   -2.3329    0.0000 H       1  UNL1        0.0654
     49 H           7.8841   -0.0599    0.0000 H       1  UNL1        0.0278
     50 H           8.7319    0.1638    0.0000 H       1  UNL1        0.0278
     51 H           8.5082   -1.0116    0.0000 H       1  UNL1        0.0278
     52 H           8.7319   -0.1638    0.0000 H       1  UNL1        0.0278
     53 H           7.8841    0.0599    0.0000 H       1  UNL1        0.0278
     54 H           8.5082    1.0116    0.0000 H       1  UNL1        0.0278
     55 H           6.9478   -3.8508    0.0000 H       1  UNL1        0.2922
     56 H           6.9478    3.8508    0.0000 H       1  UNL1        0.2922
     57 H           2.3843   -3.8508    0.0000 H       1  UNL1        0.2922
     58 H           2.3843    3.8508    0.0000 H       1  UNL1        0.2922
@<TRIPOS>BOND
     1     1    17    2
     2     2    18    2
     3     3    24    1
     4     3    55    1
     5     4    23    1
     6     4    56    1
     7     5    26    1
     8     5    57    1
     9     6    25    1
    10     6    58    1
    11     7     8    1
    12     7    10    1
    13     7    12    1
    14     7    38    1
    15     8     9    1
    16     8    11    1
    17     8    37    1
    18     9    14   ar
    19     9    20   ar
    20    10    13   ar
    21    10    19   ar
    22    11    16   ar
    23    11    22   ar
    24    12    15   ar
    25    12    21   ar
    26    13    17    1
    27    13    24   ar
    28    14    18    1
    29    14    23   ar
    30    15    17    1
    31    15    26   ar
    32    16    18    1
    33    16    25   ar
    34    19    28   ar
    35    19    40    1
    36    20    27   ar
    37    20    39    1
    38    21    32   ar
    39    21    42    1
    40    22    31   ar
    41    22    41    1
    42    23    30   ar
    43    24    29   ar
    44    25    34   ar
    45    26    33   ar
    46    27    30   ar
    47    27    35    1
    48    28    29   ar
    49    28    36    1
    50    29    44    1
    51    30    43    1
    52    31    34   ar
    53    31    45    1
    54    32    33   ar
    55    32    46    1
    56    33    48    1
    57    34    47    1
    58    35    49    1
    59    35    50    1
    60    35    54    1
    61    36    51    1
    62    36    52    1
    63    36    53    1
