@<TRIPOS>MOLECULE
IMPHY012607
 17 17 0 0 0
SMALL
GASTEIGER

@<TRIPOS>ATOM
      1 S           2.8660   -1.0000    0.0000 S.3     1  UNL1       -0.1299
      2 O           3.7320    0.5000    0.0000 O.3     1  UNL1       -0.3663
      3 C           2.0000    0.5000    0.0000 C.3     1  UNL1       -0.0203
      4 C           3.7320   -0.5000    0.0000 C.3     1  UNL1        0.1013
      5 C           2.0000   -0.5000    0.0000 C.3     1  UNL1       -0.0019
      6 C           2.8660    1.0000    0.0000 C.3     1  UNL1        0.0498
      7 C           4.5981   -1.0000    0.0000 C.3     1  UNL1       -0.0292
      8 H           1.7880    1.0826    0.0000 H       1  UNL1        0.0295
      9 H           1.3894    0.3923    0.0000 H       1  UNL1        0.0295
     10 H           3.7320   -1.1200    0.0000 H       1  UNL1        0.0709
     11 H           1.3894   -0.3923    0.0000 H       1  UNL1        0.0378
     12 H           1.7880   -1.0826    0.0000 H       1  UNL1        0.0378
     13 H           3.2646    1.4750    0.0000 H       1  UNL1        0.0560
     14 H           2.4675    1.4750    0.0000 H       1  UNL1        0.0560
     15 H           4.2881   -1.5369    0.0000 H       1  UNL1        0.0263
     16 H           5.1350   -1.3100    0.0000 H       1  UNL1        0.0263
     17 H           4.9081   -0.4631    0.0000 H       1  UNL1        0.0263
@<TRIPOS>BOND
     1     1     4    1
     2     1     5    1
     3     2     4    1
     4     2     6    1
     5     3     5    1
     6     3     6    1
     7     3     8    1
     8     3     9    1
     9     4     7    1
    10     4    10    1
    11     5    11    1
    12     5    12    1
    13     6    13    1
    14     6    14    1
    15     7    15    1
    16     7    16    1
    17     7    17    1
