@<TRIPOS>MOLECULE
IMPHY012435
 85 89 0 0 0
SMALL
GASTEIGER

@<TRIPOS>ATOM
      1 O           6.1847   -2.9697    0.0000 O.3     1  UNL1       -0.3910
      2 O          11.5367    3.2439    0.0000 O.3     1  UNL1       -0.3912
      3 O           3.7035   -2.7672    0.0000 O.3     1  UNL1       -0.3885
      4 O           2.5357   -1.9528    0.0000 O.3     1  UNL1       -0.3887
      5 O           4.9217   -3.3859    0.0000 O.3     1  UNL1       -0.3943
      6 C           7.9288    0.0995    0.0000 C.3     1  UNL1       -0.0193
      7 C           7.9288    1.0995    0.0000 C.3     1  UNL1       -0.0257
      8 C           7.0628   -0.4005    0.0000 C.3     1  UNL1       -0.0028
      9 C           8.8228    1.6342    0.0000 C.3     1  UNL1       -0.0250
     10 C           9.7288    1.1204    0.0000 C.3     1  UNL1       -0.0278
     11 C           8.8228   -0.4351    0.0000 C.3     1  UNL1       -0.0463
     12 C           6.1968    0.0995    0.0000 C.2     1  UNL1       -0.0631
     13 C           5.2868   -0.4073    0.0000 C.3     1  UNL1       -0.0062
     14 C           5.2787   -1.4489    0.0000 C.3     1  UNL1        0.0545
     15 C           9.7288    0.0787    0.0000 C.3     1  UNL1       -0.0486
     16 C           7.0789   -1.4420    0.0000 C.3     1  UNL1       -0.0165
     17 C          10.6726    1.6556    0.0000 C.3     1  UNL1       -0.0056
     18 C           7.0628    1.5995    0.0000 C.3     1  UNL1       -0.0306
     19 C           8.7977    2.7189    0.0000 C.3     1  UNL1       -0.0447
     20 C           6.1808   -1.9697    0.0000 C.3     1  UNL1        0.0667
     21 C           8.2709   -0.8401    0.0000 C.3     1  UNL1       -0.0585
     22 C           6.1968    1.0995    0.0000 C.2     1  UNL1       -0.0836
     23 C           4.3599    0.1568    0.0000 C.3     1  UNL1       -0.0381
     24 C           7.7056   -1.1665    0.0000 C.3     1  UNL1       -0.0552
     25 C          10.6726    2.7406    0.0000 C.3     1  UNL1        0.0606
     26 C           7.9529    2.1275    0.0000 C.3     1  UNL1       -0.0590
     27 C           4.3433   -1.9986    0.0000 C.3     1  UNL1        0.0921
     28 C           9.7288    3.2758    0.0000 C.3     1  UNL1       -0.0258
     29 C           3.4120   -0.3712    0.0000 C.3     1  UNL1       -0.0059
     30 C           3.4037   -1.4561    0.0000 C.3     1  UNL1        0.0869
     31 C           5.2710   -2.4489    0.0000 C.3     1  UNL1        0.0552
     32 C          11.6726    1.6517    0.0000 C.3     1  UNL1       -0.0572
     33 C          11.1693    0.7876    0.0000 C.3     1  UNL1       -0.0572
     34 C           2.4121   -0.3596    0.0000 C.3     1  UNL1       -0.0574
     35 C           2.9221    0.5006    0.0000 C.3     1  UNL1       -0.0574
     36 H           8.6682    0.6802    0.0000 H       1  UNL1        0.0315
     37 H          10.4633    0.6925    0.0000 H       1  UNL1        0.0312
     38 H           8.4182   -0.9049    0.0000 H       1  UNL1        0.0271
     39 H           9.2164   -0.9141    0.0000 H       1  UNL1        0.0271
     40 H           5.3031    0.4425    0.0000 H       1  UNL1        0.0354
     41 H           9.9379   -0.5050    0.0000 H       1  UNL1        0.0268
     42 H          10.3397    0.1848    0.0000 H       1  UNL1        0.0268
     43 H           7.2969   -2.0224    0.0000 H       1  UNL1        0.0299
     44 H           7.6880   -1.3265    0.0000 H       1  UNL1        0.0299
     45 H           7.4613    2.0745    0.0000 H       1  UNL1        0.0310
     46 H           6.6643    2.0745    0.0000 H       1  UNL1        0.0310
     47 H           8.5752    3.2976    0.0000 H       1  UNL1        0.0271
     48 H           8.1894    2.5987    0.0000 H       1  UNL1        0.0271
     49 H           6.7195   -2.2766    0.0000 H       1  UNL1        0.0601
     50 H           7.6884   -1.0522    0.0000 H       1  UNL1        0.0235
     51 H           8.4830   -1.4227    0.0000 H       1  UNL1        0.0235
     52 H           8.8535   -0.6280    0.0000 H       1  UNL1        0.0235
     53 H           5.6598    1.4095    0.0000 H       1  UNL1        0.0572
     54 H           4.7681    0.6234    0.0000 H       1  UNL1        0.0277
     55 H           3.9700    0.6388    0.0000 H       1  UNL1        0.0277
     56 H           7.2306   -1.5650    0.0000 H       1  UNL1        0.0238
     57 H           8.1041   -1.6415    0.0000 H       1  UNL1        0.0238
     58 H           8.1805   -0.7680    0.0000 H       1  UNL1        0.0238
     59 H          11.2101    2.4316    0.0000 H       1  UNL1        0.0599
     60 H           4.7446   -2.4713    0.0000 H       1  UNL1        0.0626
     61 H           8.2588    2.6668    0.0000 H       1  UNL1        0.0235
     62 H           7.4136    2.4334    0.0000 H       1  UNL1        0.0235
     63 H           7.6471    1.5882    0.0000 H       1  UNL1        0.0235
     64 H          10.1225    3.7548    0.0000 H       1  UNL1        0.0290
     65 H           9.3242    3.7456    0.0000 H       1  UNL1        0.0290
     66 H           3.4025   -2.0761    0.0000 H       1  UNL1        0.0625
     67 H           5.7187   -2.8778    0.0000 H       1  UNL1        0.0564
     68 H           4.6613   -2.3365    0.0000 H       1  UNL1        0.0564
     69 H          11.6702    1.0317    0.0000 H       1  UNL1        0.0236
     70 H          12.2926    1.6493    0.0000 H       1  UNL1        0.0236
     71 H          11.6750    2.2717    0.0000 H       1  UNL1        0.0236
     72 H          10.6311    0.4797    0.0000 H       1  UNL1        0.0236
     73 H          11.4772    0.2495    0.0000 H       1  UNL1        0.0236
     74 H          11.7074    1.0956    0.0000 H       1  UNL1        0.0236
     75 H           6.7228   -3.2776    0.0000 H       1  UNL1        0.2098
     76 H           2.4193    0.2603    0.0000 H       1  UNL1        0.0236
     77 H           1.7922   -0.3524    0.0000 H       1  UNL1        0.0236
     78 H           2.4049   -0.9796    0.0000 H       1  UNL1        0.0236
     79 H           3.4626    0.8043    0.0000 H       1  UNL1        0.0236
     80 H           2.6183    1.0411    0.0000 H       1  UNL1        0.0236
     81 H           2.3816    0.1968    0.0000 H       1  UNL1        0.0236
     82 H          11.5343    3.8639    0.0000 H       1  UNL1        0.2098
     83 H           3.0925   -2.6619    0.0000 H       1  UNL1        0.2099
     84 H           2.0000   -1.6407    0.0000 H       1  UNL1        0.2099
     85 H           5.3166   -3.8639    0.0000 H       1  UNL1        0.2094
@<TRIPOS>BOND
     1    20     1    1
     2     1    75    1
     3    25     2    1
     4     2    82    1
     5    27     3    1
     6     3    83    1
     7    30     4    1
     8     4    84    1
     9     5    31    1
    10     5    85    1
    11     6     7    1
    12     6     8    1
    13     6    11    1
    14     6    21    1
    15     7     9    1
    16     7    18    1
    17     7    36    1
    18     8    12    1
    19     8    16    1
    20     8    24    1
    21     9    10    1
    22     9    19    1
    23     9    26    1
    24    10    15    1
    25    10    17    1
    26    10    37    1
    27    11    15    1
    28    11    38    1
    29    11    39    1
    30    12    13    1
    31    12    22    2
    32    13    14    1
    33    13    23    1
    34    13    40    1
    35    14    20    1
    36    14    27    1
    37    14    31    1
    38    15    41    1
    39    15    42    1
    40    16    20    1
    41    16    43    1
    42    16    44    1
    43    17    25    1
    44    17    32    1
    45    17    33    1
    46    18    22    1
    47    18    45    1
    48    18    46    1
    49    19    28    1
    50    19    47    1
    51    19    48    1
    52    20    49    1
    53    21    50    1
    54    21    51    1
    55    21    52    1
    56    22    53    1
    57    23    29    1
    58    23    54    1
    59    23    55    1
    60    24    56    1
    61    24    57    1
    62    24    58    1
    63    25    28    1
    64    25    59    1
    65    26    61    1
    66    26    62    1
    67    26    63    1
    68    27    30    1
    69    27    60    1
    70    28    64    1
    71    28    65    1
    72    29    30    1
    73    29    34    1
    74    29    35    1
    75    30    66    1
    76    31    67    1
    77    31    68    1
    78    32    69    1
    79    32    70    1
    80    32    71    1
    81    33    72    1
    82    33    73    1
    83    33    74    1
    84    34    76    1
    85    34    77    1
    86    34    78    1
    87    35    79    1
    88    35    80    1
    89    35    81    1
