@<TRIPOS>MOLECULE
IMPHY010657
 61 63 0 0 0
SMALL
GASTEIGER

@<TRIPOS>ATOM
      1 O           7.6962   -0.3455    0.0000 O.3     1  UNL1       -0.4433
      2 O           5.4641   -3.2115    0.0000 O.3     1  UNL1       -0.4554
      3 O           7.1962   -4.2115    0.0000 O.3     1  UNL1       -0.3856
      4 O           8.9282   -3.2115    0.0000 O.3     1  UNL1       -0.3890
      5 O           5.6962   -0.3455    0.0000 O.3     1  UNL1       -0.4778
      6 O           7.1962    0.5205    0.0000 O.2     1  UNL1       -0.2465
      7 O           9.1962   -1.2115    0.0000 O.2     1  UNL1       -0.2456
      8 O           4.5981   -1.7115    0.0000 O.2     1  UNL1       -0.2456
      9 O          13.1962    2.2526    0.0000 O.3     1  UNL1       -0.5033
     10 O           4.5981    0.2885    0.0000 O.3     1  UNL1       -0.5033
     11 O          12.1962    3.9846    0.0000 O.3     1  UNL1       -0.5033
     12 O           2.8660    1.2885    0.0000 O.3     1  UNL1       -0.5033
     13 C           7.1962   -1.2115    0.0000 C.3     1  UNL1        0.2149
     14 C           6.3301   -1.7115    0.0000 C.3     1  UNL1        0.0377
     15 C           6.3301   -2.7115    0.0000 C.3     1  UNL1        0.1357
     16 C           8.0622   -1.7115    0.0000 C.3     1  UNL1        0.0266
     17 C           7.1962   -3.2115    0.0000 C.3     1  UNL1        0.1181
     18 C           8.0622   -2.7115    0.0000 C.3     1  UNL1        0.0887
     19 C           6.6962   -0.3455    0.0000 C.2     1  UNL1        0.3494
     20 C           8.6962   -0.3455    0.0000 C.2     1  UNL1        0.3330
     21 C           4.5981   -2.7115    0.0000 C.2     1  UNL1        0.3323
     22 C           9.1962    0.5205    0.0000 C.2     1  UNL1        0.0231
     23 C           3.7320   -3.2115    0.0000 C.2     1  UNL1        0.0231
     24 C          10.1962    0.5205    0.0000 C.2     1  UNL1       -0.0477
     25 C           2.8660   -2.7115    0.0000 C.2     1  UNL1       -0.0477
     26 C          10.6962    1.3865    0.0000 C.ar    1  UNL1       -0.0211
     27 C           2.8660   -1.7115    0.0000 C.ar    1  UNL1       -0.0211
     28 C          11.6962    1.3865    0.0000 C.ar    1  UNL1       -0.0094
     29 C          10.1962    2.2526    0.0000 C.ar    1  UNL1       -0.0509
     30 C           3.7320   -1.2115    0.0000 C.ar    1  UNL1       -0.0094
     31 C           2.0000   -1.2115    0.0000 C.ar    1  UNL1       -0.0509
     32 C          12.1962    2.2526    0.0000 C.ar    1  UNL1        0.1588
     33 C          10.6962    3.1186    0.0000 C.ar    1  UNL1       -0.0160
     34 C           3.7320   -0.2115    0.0000 C.ar    1  UNL1        0.1588
     35 C           2.0000   -0.2115    0.0000 C.ar    1  UNL1       -0.0160
     36 C          11.6962    3.1186    0.0000 C.ar    1  UNL1        0.1582
     37 C           2.8660    0.2885    0.0000 C.ar    1  UNL1        0.1582
     38 H           6.1181   -1.1289    0.0000 H       1  UNL1        0.0346
     39 H           5.7196   -1.8192    0.0000 H       1  UNL1        0.0346
     40 H           5.7932   -2.4015    0.0000 H       1  UNL1        0.0762
     41 H           8.6728   -1.8192    0.0000 H       1  UNL1        0.0335
     42 H           8.2742   -1.1289    0.0000 H       1  UNL1        0.0335
     43 H           6.6592   -3.5215    0.0000 H       1  UNL1        0.0656
     44 H           8.0622   -3.3315    0.0000 H       1  UNL1        0.0622
     45 H           7.7331   -4.5215    0.0000 H       1  UNL1        0.2100
     46 H           9.4651   -2.9015    0.0000 H       1  UNL1        0.2099
     47 H           5.3862    0.1914    0.0000 H       1  UNL1        0.2952
     48 H           8.8862    1.0574    0.0000 H       1  UNL1        0.0689
     49 H           3.7320   -3.8315    0.0000 H       1  UNL1        0.0689
     50 H          10.5062   -0.0164    0.0000 H       1  UNL1        0.0626
     51 H           2.3291   -3.0215    0.0000 H       1  UNL1        0.0626
     52 H          12.0062    0.8496    0.0000 H       1  UNL1        0.0661
     53 H           9.5762    2.2526    0.0000 H       1  UNL1        0.0625
     54 H           4.2690   -1.5215    0.0000 H       1  UNL1        0.0661
     55 H           1.4631   -1.5215    0.0000 H       1  UNL1        0.0625
     56 H          10.3862    3.6555    0.0000 H       1  UNL1        0.0655
     57 H           1.4631    0.0985    0.0000 H       1  UNL1        0.0655
     58 H          13.5062    1.7156    0.0000 H       1  UNL1        0.2923
     59 H           4.5981    0.9085    0.0000 H       1  UNL1        0.2923
     60 H          11.8862    4.5215    0.0000 H       1  UNL1        0.2923
     61 H           2.3291    1.5985    0.0000 H       1  UNL1        0.2923
@<TRIPOS>BOND
     1    13     1    1
     2     1    20    1
     3    15     2    1
     4     2    21    1
     5    17     3    1
     6     3    45    1
     7    18     4    1
     8     4    46    1
     9     5    19    1
    10     5    47    1
    11     6    19    2
    12     7    20    2
    13     8    21    2
    14     9    32    1
    15     9    58    1
    16    10    34    1
    17    10    59    1
    18    11    36    1
    19    11    60    1
    20    12    37    1
    21    12    61    1
    22    13    14    1
    23    13    16    1
    24    13    19    1
    25    14    15    1
    26    14    38    1
    27    14    39    1
    28    15    17    1
    29    15    40    1
    30    16    18    1
    31    16    41    1
    32    16    42    1
    33    17    18    1
    34    17    43    1
    35    18    44    1
    36    20    22    1
    37    21    23    1
    38    22    24    2
    39    22    48    1
    40    23    25    2
    41    23    49    1
    42    24    26    1
    43    24    50    1
    44    25    27    1
    45    25    51    1
    46    26    28   ar
    47    26    29   ar
    48    27    30   ar
    49    27    31   ar
    50    28    32   ar
    51    28    52    1
    52    29    33   ar
    53    29    53    1
    54    30    34   ar
    55    30    54    1
    56    31    35   ar
    57    31    55    1
    58    32    36   ar
    59    33    36   ar
    60    33    56    1
    61    34    37   ar
    62    35    37   ar
    63    35    57    1
