@<TRIPOS>MOLECULE
IMPHY009732
 29 29 0 0 0
SMALL
GASTEIGER

@<TRIPOS>ATOM
      1 O           2.5369   -1.2500    0.0000 O.3     1  UNL1       -0.3875
      2 C           4.2690    0.7500    0.0000 C.3     1  UNL1       -0.0326
      3 C           3.4030    0.2500    0.0000 C.3     1  UNL1       -0.0196
      4 C           4.2690    1.7500    0.0000 C.3     1  UNL1       -0.0435
      5 C           5.1350    0.2500    0.0000 C.3     1  UNL1       -0.0313
      6 C           3.4030   -0.7500    0.0000 C.3     1  UNL1        0.0763
      7 C           4.2690   -1.2500    0.0000 C.2     1  UNL1       -0.0484
      8 C           5.1350   -0.7500    0.0000 C.2     1  UNL1       -0.0823
      9 C           5.1350    2.2500    0.0000 C.3     1  UNL1       -0.0624
     10 C           3.4030    2.2500    0.0000 C.3     1  UNL1       -0.0624
     11 C           4.2690   -2.2500    0.0000 C.3     1  UNL1       -0.0414
     12 H           4.8059    1.0600    0.0000 H       1  UNL1        0.0307
     13 H           3.1909    0.8326    0.0000 H       1  UNL1        0.0296
     14 H           2.7924    0.1423    0.0000 H       1  UNL1        0.0296
     15 H           4.2690    2.3700    0.0000 H       1  UNL1        0.0298
     16 H           5.7456    0.1423    0.0000 H       1  UNL1        0.0310
     17 H           5.3471    0.8326    0.0000 H       1  UNL1        0.0310
     18 H           3.4030   -1.3700    0.0000 H       1  UNL1        0.0640
     19 H           5.6720   -1.0600    0.0000 H       1  UNL1        0.0572
     20 H           5.4450    1.7131    0.0000 H       1  UNL1        0.0232
     21 H           5.6720    2.5600    0.0000 H       1  UNL1        0.0232
     22 H           4.8250    2.7869    0.0000 H       1  UNL1        0.0232
     23 H           3.7130    2.7869    0.0000 H       1  UNL1        0.0232
     24 H           2.8660    2.5600    0.0000 H       1  UNL1        0.0232
     25 H           3.0930    1.7131    0.0000 H       1  UNL1        0.0232
     26 H           3.6490   -2.2500    0.0000 H       1  UNL1        0.0275
     27 H           4.2690   -2.8700    0.0000 H       1  UNL1        0.0275
     28 H           4.8890   -2.2500    0.0000 H       1  UNL1        0.0275
     29 H           2.0000   -0.9400    0.0000 H       1  UNL1        0.2102
@<TRIPOS>BOND
     1     6     1    1
     2     1    29    1
     3     2     3    1
     4     2     4    1
     5     2     5    1
     6     2    12    1
     7     3     6    1
     8     3    13    1
     9     3    14    1
    10     4     9    1
    11     4    10    1
    12     4    15    1
    13     5     8    1
    14     5    16    1
    15     5    17    1
    16     6     7    1
    17     6    18    1
    18     7     8    2
    19     7    11    1
    20     8    19    1
    21     9    20    1
    22     9    21    1
    23     9    22    1
    24    10    23    1
    25    10    24    1
    26    10    25    1
    27    11    26    1
    28    11    27    1
    29    11    28    1
