@<TRIPOS>MOLECULE
IMPHY002751
 72 77 0 0 0
SMALL
GASTEIGER

@<TRIPOS>ATOM
      1 O           5.5954   -2.1265    0.0000 O.3     1  UNL1       -0.3425
      2 O           3.9300   -1.0453    0.0000 O.3     1  UNL1       -0.3417
      3 O           8.3882    3.2109    0.0000 O.3     1  UNL1       -0.3908
      4 O           5.4454   -3.2141    0.0000 O.3     1  UNL1       -0.3861
      5 O          12.0027    3.2527    0.0000 O.3     1  UNL1       -0.3914
      6 C           6.6628    0.1083    0.0000 C.3     1  UNL1       -0.0233
      7 C           7.5288   -0.3917    0.0000 C.3     1  UNL1       -0.0295
      8 C           5.9258   -0.5588    0.0000 C.3     1  UNL1       -0.0014
      9 C           8.3948    0.1083    0.0000 C.3     1  UNL1       -0.0305
     10 C           6.3309   -1.4666    0.0000 C.3     1  UNL1        0.0661
     11 C           8.3948    1.1083    0.0000 C.3     1  UNL1       -0.0262
     12 C           7.3196   -1.3635    0.0000 C.3     1  UNL1       -0.0226
     13 C           6.6628    1.1083    0.0000 C.3     1  UNL1       -0.0467
     14 C           4.9434   -0.6655    0.0000 C.3     1  UNL1        0.0186
     15 C           7.5288    1.6083    0.0000 C.3     1  UNL1       -0.0486
     16 C           9.2888    1.6430    0.0000 C.3     1  UNL1        0.0181
     17 C           4.7396   -1.6324    0.0000 C.3     1  UNL1        0.1999
     18 C           5.7968    0.6083    0.0000 C.3     1  UNL1       -0.0590
     19 C           9.2888   -0.4264    0.0000 C.3     1  UNL1       -0.0311
     20 C          10.1949    1.1291    0.0000 C.2     1  UNL1       -0.0624
     21 C           9.2637    2.7277    0.0000 C.3     1  UNL1        0.0669
     22 C           4.2723    0.0759    0.0000 C.3     1  UNL1       -0.0571
     23 C          10.1949    0.0875    0.0000 C.2     1  UNL1       -0.0838
     24 C           4.6359   -2.6270    0.0000 C.3     1  UNL1        0.1129
     25 C           8.4189    2.1363    0.0000 C.3     1  UNL1       -0.0532
     26 C          11.1386    1.6644    0.0000 C.3     1  UNL1       -0.0049
     27 C          10.1949    3.2846    0.0000 C.3     1  UNL1        0.0004
     28 C          11.1386    2.7494    0.0000 C.3     1  UNL1        0.0613
     29 C           3.7227   -3.0346    0.0000 C.3     1  UNL1        0.0014
     30 C           3.0169   -1.4529    0.0000 C.3     1  UNL1        0.0720
     31 C           2.9132   -2.4475    0.0000 C.2     1  UNL1       -0.0486
     32 C           2.0000   -2.8550    0.0000 C.2     1  UNL1       -0.0972
     33 H           8.2158   -0.8922    0.0000 H       1  UNL1        0.0310
     34 H           5.5777    0.2167    0.0000 H       1  UNL1        0.0335
     35 H           8.3883   -0.7417    0.0000 H       1  UNL1        0.0310
     36 H           6.6756   -2.2435    0.0000 H       1  UNL1        0.0600
     37 H           9.1342    0.6890    0.0000 H       1  UNL1        0.0313
     38 H           7.3187   -1.9835    0.0000 H       1  UNL1        0.0293
     39 H           7.9361   -1.4296    0.0000 H       1  UNL1        0.0293
     40 H           6.4507    1.6909    0.0000 H       1  UNL1        0.0271
     41 H           6.0522    1.0006    0.0000 H       1  UNL1        0.0271
     42 H           4.3448   -0.8272    0.0000 H       1  UNL1        0.0354
     43 H           7.9274    2.0833    0.0000 H       1  UNL1        0.0268
     44 H           7.1303    2.0833    0.0000 H       1  UNL1        0.0268
     45 H           6.1068    1.1453    0.0000 H       1  UNL1        0.0235
     46 H           5.2598    0.9183    0.0000 H       1  UNL1        0.0235
     47 H           5.4868    0.0714    0.0000 H       1  UNL1        0.0235
     48 H           8.8842   -0.8961    0.0000 H       1  UNL1        0.0310
     49 H           9.6824   -0.9054    0.0000 H       1  UNL1        0.0310
     50 H           9.2529    3.3476    0.0000 H       1  UNL1        0.0603
     51 H           4.7320    0.4920    0.0000 H       1  UNL1        0.0234
     52 H           3.8562    0.5356    0.0000 H       1  UNL1        0.0234
     53 H           3.8126   -0.3401    0.0000 H       1  UNL1        0.0234
     54 H          10.7306   -0.2246    0.0000 H       1  UNL1        0.0572
     55 H           4.5716   -3.2437    0.0000 H       1  UNL1        0.0650
     56 H           8.7248    2.6756    0.0000 H       1  UNL1        0.0239
     57 H           7.8796    2.4421    0.0000 H       1  UNL1        0.0239
     58 H           8.1131    1.5970    0.0000 H       1  UNL1        0.0239
     59 H          11.3477    1.0807    0.0000 H       1  UNL1        0.0335
     60 H          11.7495    1.7705    0.0000 H       1  UNL1        0.0335
     61 H          10.5885    3.7636    0.0000 H       1  UNL1        0.0315
     62 H           9.7903    3.7544    0.0000 H       1  UNL1        0.0315
     63 H          11.1351    3.3694    0.0000 H       1  UNL1        0.0597
     64 H           3.2771   -3.4656    0.0000 H       1  UNL1        0.0337
     65 H           4.0699   -3.5483    0.0000 H       1  UNL1        0.0337
     66 H           2.8664   -0.8514    0.0000 H       1  UNL1        0.0608
     67 H           2.3984   -1.4966    0.0000 H       1  UNL1        0.0608
     68 H           8.3762    3.8308    0.0000 H       1  UNL1        0.2098
     69 H           5.3812   -3.8308    0.0000 H       1  UNL1        0.2100
     70 H          12.5409    2.9448    0.0000 H       1  UNL1        0.2098
     71 H           1.4981   -2.4910    0.0000 H       1  UNL1        0.0535
     72 H           1.9357   -3.4717    0.0000 H       1  UNL1        0.0535
@<TRIPOS>BOND
     1     1    10    1
     2    17     1    1
     3     2    17    1
     4     2    30    1
     5    21     3    1
     6     3    68    1
     7    24     4    1
     8     4    69    1
     9    28     5    1
    10     5    70    1
    11     6     7    1
    12     6     8    1
    13     6    13    1
    14     6    18    1
    15     7     9    1
    16     7    12    1
    17     7    33    1
    18     8    10    1
    19     8    14    1
    20     8    34    1
    21     9    11    1
    22     9    19    1
    23     9    35    1
    24    10    12    1
    25    10    36    1
    26    11    15    1
    27    11    16    1
    28    11    37    1
    29    12    38    1
    30    12    39    1
    31    13    15    1
    32    13    40    1
    33    13    41    1
    34    14    17    1
    35    14    22    1
    36    14    42    1
    37    15    43    1
    38    15    44    1
    39    16    20    1
    40    16    21    1
    41    16    25    1
    42    17    24    1
    43    18    45    1
    44    18    46    1
    45    18    47    1
    46    19    23    1
    47    19    48    1
    48    19    49    1
    49    20    23    2
    50    20    26    1
    51    21    27    1
    52    21    50    1
    53    22    51    1
    54    22    52    1
    55    22    53    1
    56    23    54    1
    57    24    29    1
    58    24    55    1
    59    25    56    1
    60    25    57    1
    61    25    58    1
    62    26    28    1
    63    26    59    1
    64    26    60    1
    65    27    28    1
    66    27    61    1
    67    27    62    1
    68    28    63    1
    69    29    31    1
    70    29    64    1
    71    29    65    1
    72    30    31    1
    73    30    66    1
    74    30    67    1
    75    31    32    2
    76    32    71    1
    77    32    72    1
