@<TRIPOS>MOLECULE
IMPHY002937
 54 57 0 0 0
SMALL
GASTEIGER

@<TRIPOS>ATOM
      1 O           9.9229    0.0493    0.0000 O.3     1  UNL1       -0.3911
      2 O           7.9821    2.5489    0.0000 O.2     1  UNL1       -0.2973
      3 O           2.0000   -2.5030    0.0000 O.2     1  UNL1       -0.2927
      4 C           7.3931   -0.4507    0.0000 C.3     1  UNL1       -0.0294
      5 C           7.3931    0.5493    0.0000 C.3     1  UNL1       -0.0170
      6 C           6.5271   -0.9507    0.0000 C.3     1  UNL1       -0.0337
      7 C           5.6610   -0.4507    0.0000 C.3     1  UNL1       -0.0288
      8 C           8.3393    0.8540    0.0000 C.3     1  UNL1        0.0488
      9 C           4.7510   -0.9575    0.0000 C.3     1  UNL1       -0.0072
     10 C           6.5271    1.0493    0.0000 C.3     1  UNL1       -0.0463
     11 C           5.6610    0.5493    0.0000 C.3     1  UNL1       -0.0486
     12 C           8.3393   -0.7554    0.0000 C.3     1  UNL1       -0.0226
     13 C           8.9229    0.0493    0.0000 C.3     1  UNL1        0.0655
     14 C           6.5431   -1.9922    0.0000 C.3     1  UNL1       -0.0459
     15 C           7.3931    1.5493    0.0000 C.3     1  UNL1       -0.0586
     16 C           4.7430   -1.9991    0.0000 C.2     1  UNL1       -0.0601
     17 C           5.6451   -2.5200    0.0000 C.3     1  UNL1       -0.0305
     18 C           3.8242   -0.3935    0.0000 C.3     1  UNL1       -0.0367
     19 C           4.7587    0.0424    0.0000 C.3     1  UNL1       -0.0556
     20 C           8.6500    1.8046    0.0000 C.2     1  UNL1        0.1363
     21 C           2.8763   -0.9214    0.0000 C.3     1  UNL1        0.0107
     22 C           3.8076   -2.5489    0.0000 C.2     1  UNL1       -0.0194
     23 C           2.8680   -2.0064    0.0000 C.2     1  UNL1        0.1561
     24 C           9.6285    2.0108    0.0000 C.3     1  UNL1       -0.0057
     25 H           7.4830   -1.2959    0.0000 H       1  UNL1        0.0310
     26 H           7.2664   -1.3700    0.0000 H       1  UNL1        0.0307
     27 H           6.3972   -0.0257    0.0000 H       1  UNL1        0.0312
     28 H           7.9018    1.2934    0.0000 H       1  UNL1        0.0408
     29 H           6.9256    1.5243    0.0000 H       1  UNL1        0.0271
     30 H           6.1285    1.5243    0.0000 H       1  UNL1        0.0271
     31 H           5.4490    1.1319    0.0000 H       1  UNL1        0.0268
     32 H           5.0504    0.4416    0.0000 H       1  UNL1        0.0268
     33 H           8.0883   -1.3223    0.0000 H       1  UNL1        0.0293
     34 H           8.8767   -1.0647    0.0000 H       1  UNL1        0.0293
     35 H           9.2046   -0.5030    0.0000 H       1  UNL1        0.0600
     36 H           6.7612   -2.5726    0.0000 H       1  UNL1        0.0271
     37 H           7.1523   -1.8767    0.0000 H       1  UNL1        0.0271
     38 H           8.0131    1.5493    0.0000 H       1  UNL1        0.0235
     39 H           7.3931    2.1693    0.0000 H       1  UNL1        0.0235
     40 H           6.7731    1.5493    0.0000 H       1  UNL1        0.0235
     41 H           5.2478   -2.9959    0.0000 H       1  UNL1        0.0310
     42 H           6.0460   -2.9928    0.0000 H       1  UNL1        0.0310
     43 H           4.2324    0.0732    0.0000 H       1  UNL1        0.0278
     44 H           3.4343    0.0886    0.0000 H       1  UNL1        0.0278
     45 H           5.3787    0.0377    0.0000 H       1  UNL1        0.0238
     46 H           4.7635    0.6624    0.0000 H       1  UNL1        0.0238
     47 H           4.1388    0.0472    0.0000 H       1  UNL1        0.0238
     48 H           2.6718   -0.3361    0.0000 H       1  UNL1        0.0345
     49 H           2.2647   -1.0228    0.0000 H       1  UNL1        0.0345
     50 H           3.8100   -3.1689    0.0000 H       1  UNL1        0.0652
     51 H          10.2329   -0.4876    0.0000 H       1  UNL1        0.2098
     52 H           9.7563    1.4041    0.0000 H       1  UNL1        0.0306
     53 H          10.2351    2.1386    0.0000 H       1  UNL1        0.0306
     54 H           9.5006    2.6174    0.0000 H       1  UNL1        0.0306
@<TRIPOS>BOND
     1    13     1    1
     2     1    51    1
     3     2    20    2
     4     3    23    2
     5     4     5    1
     6     4     6    1
     7     4    12    1
     8     4    25    1
     9     5     8    1
    10     5    10    1
    11     5    15    1
    12     6     7    1
    13     6    14    1
    14     6    26    1
    15     7     9    1
    16     7    11    1
    17     7    27    1
    18     8    13    1
    19     8    20    1
    20     8    28    1
    21     9    16    1
    22     9    18    1
    23     9    19    1
    24    10    11    1
    25    10    29    1
    26    10    30    1
    27    11    31    1
    28    11    32    1
    29    12    13    1
    30    12    33    1
    31    12    34    1
    32    13    35    1
    33    14    17    1
    34    14    36    1
    35    14    37    1
    36    15    38    1
    37    15    39    1
    38    15    40    1
    39    16    17    1
    40    16    22    2
    41    17    41    1
    42    17    42    1
    43    18    21    1
    44    18    43    1
    45    18    44    1
    46    19    45    1
    47    19    46    1
    48    19    47    1
    49    20    24    1
    50    21    23    1
    51    21    48    1
    52    21    49    1
    53    22    23    1
    54    22    50    1
    55    24    52    1
    56    24    53    1
    57    24    54    1
