@<TRIPOS>MOLECULE
IMPHY004030
 90 89 0 0 0
SMALL
GASTEIGER

@<TRIPOS>ATOM
      1 O           9.7942   -0.5950    0.0000 O.3     1  UNL1       -0.3918
      2 C           9.7942    0.4050    0.0000 C.3     1  UNL1        0.0553
      3 C          10.6603    0.9050    0.0000 C.3     1  UNL1       -0.0269
      4 C          11.5263    0.4050    0.0000 C.3     1  UNL1       -0.0507
      5 C          12.3923    0.9050    0.0000 C.3     1  UNL1       -0.0530
      6 C          13.2583    0.4050    0.0000 C.3     1  UNL1       -0.0531
      7 C          14.1244    0.9050    0.0000 C.3     1  UNL1       -0.0531
      8 C          14.9904    0.4050    0.0000 C.3     1  UNL1       -0.0531
      9 C           8.9282    0.9050    0.0000 C.3     1  UNL1       -0.0269
     10 C          15.8564    0.9050    0.0000 C.3     1  UNL1       -0.0531
     11 C          16.7224    0.4050    0.0000 C.3     1  UNL1       -0.0531
     12 C          17.5885    0.9050    0.0000 C.3     1  UNL1       -0.0531
     13 C           8.0622    0.4050    0.0000 C.3     1  UNL1       -0.0507
     14 C          18.4545    0.4050    0.0000 C.3     1  UNL1       -0.0531
     15 C          19.3205    0.9050    0.0000 C.3     1  UNL1       -0.0531
     16 C           7.1962    0.9050    0.0000 C.3     1  UNL1       -0.0530
     17 C          20.1865    0.4050    0.0000 C.3     1  UNL1       -0.0531
     18 C          21.0526    0.9050    0.0000 C.3     1  UNL1       -0.0531
     19 C           6.3301    0.4050    0.0000 C.3     1  UNL1       -0.0531
     20 C          21.9186    0.4050    0.0000 C.3     1  UNL1       -0.0531
     21 C           5.4641    0.9050    0.0000 C.3     1  UNL1       -0.0531
     22 C          22.7846    0.9050    0.0000 C.3     1  UNL1       -0.0531
     23 C           4.5981    0.4050    0.0000 C.3     1  UNL1       -0.0531
     24 C          23.6506    0.4050    0.0000 C.3     1  UNL1       -0.0531
     25 C           3.7320    0.9050    0.0000 C.3     1  UNL1       -0.0533
     26 C          24.5167    0.9050    0.0000 C.3     1  UNL1       -0.0533
     27 C           2.8660    0.4050    0.0000 C.3     1  UNL1       -0.0559
     28 C          25.3827    0.4050    0.0000 C.3     1  UNL1       -0.0559
     29 C           2.0000    0.9050    0.0000 C.3     1  UNL1       -0.0653
     30 C          26.2487    0.9050    0.0000 C.3     1  UNL1       -0.0653
     31 H           9.2573    0.0950    0.0000 H       1  UNL1        0.0593
     32 H          11.0588    1.3800    0.0000 H       1  UNL1        0.0290
     33 H          10.2617    1.3800    0.0000 H       1  UNL1        0.0290
     34 H          11.1278   -0.0699    0.0000 H       1  UNL1        0.0266
     35 H          11.9248   -0.0699    0.0000 H       1  UNL1        0.0266
     36 H          12.7908    1.3800    0.0000 H       1  UNL1        0.0265
     37 H          11.9938    1.3800    0.0000 H       1  UNL1        0.0265
     38 H          12.8598   -0.0699    0.0000 H       1  UNL1        0.0265
     39 H          13.6569   -0.0699    0.0000 H       1  UNL1        0.0265
     40 H          14.5229    1.3800    0.0000 H       1  UNL1        0.0265
     41 H          13.7258    1.3800    0.0000 H       1  UNL1        0.0265
     42 H          14.5919   -0.0699    0.0000 H       1  UNL1        0.0265
     43 H          15.3889   -0.0699    0.0000 H       1  UNL1        0.0265
     44 H           9.3267    1.3800    0.0000 H       1  UNL1        0.0290
     45 H           8.5297    1.3800    0.0000 H       1  UNL1        0.0290
     46 H          16.2549    1.3800    0.0000 H       1  UNL1        0.0265
     47 H          15.4579    1.3800    0.0000 H       1  UNL1        0.0265
     48 H          16.3239   -0.0699    0.0000 H       1  UNL1        0.0265
     49 H          17.1210   -0.0699    0.0000 H       1  UNL1        0.0265
     50 H          17.9870    1.3800    0.0000 H       1  UNL1        0.0265
     51 H          17.1899    1.3800    0.0000 H       1  UNL1        0.0265
     52 H           7.6636   -0.0699    0.0000 H       1  UNL1        0.0266
     53 H           8.4607   -0.0699    0.0000 H       1  UNL1        0.0266
     54 H          18.0560   -0.0699    0.0000 H       1  UNL1        0.0265
     55 H          18.8530   -0.0699    0.0000 H       1  UNL1        0.0265
     56 H          19.7190    1.3800    0.0000 H       1  UNL1        0.0265
     57 H          18.9220    1.3800    0.0000 H       1  UNL1        0.0265
     58 H           7.5947    1.3800    0.0000 H       1  UNL1        0.0265
     59 H           6.7976    1.3800    0.0000 H       1  UNL1        0.0265
     60 H          19.7880   -0.0699    0.0000 H       1  UNL1        0.0265
     61 H          20.5851   -0.0699    0.0000 H       1  UNL1        0.0265
     62 H          21.4511    1.3800    0.0000 H       1  UNL1        0.0265
     63 H          20.6540    1.3800    0.0000 H       1  UNL1        0.0265
     64 H           5.9316   -0.0699    0.0000 H       1  UNL1        0.0265
     65 H           6.7287   -0.0699    0.0000 H       1  UNL1        0.0265
     66 H          21.5201   -0.0699    0.0000 H       1  UNL1        0.0265
     67 H          22.3171   -0.0699    0.0000 H       1  UNL1        0.0265
     68 H           5.8626    1.3800    0.0000 H       1  UNL1        0.0265
     69 H           5.0656    1.3800    0.0000 H       1  UNL1        0.0265
     70 H          23.1831    1.3800    0.0000 H       1  UNL1        0.0265
     71 H          22.3861    1.3800    0.0000 H       1  UNL1        0.0265
     72 H           4.1996   -0.0699    0.0000 H       1  UNL1        0.0265
     73 H           4.9966   -0.0699    0.0000 H       1  UNL1        0.0265
     74 H          23.2521   -0.0699    0.0000 H       1  UNL1        0.0265
     75 H          24.0492   -0.0699    0.0000 H       1  UNL1        0.0265
     76 H           4.1306    1.3800    0.0000 H       1  UNL1        0.0265
     77 H           3.3335    1.3800    0.0000 H       1  UNL1        0.0265
     78 H           9.2573   -0.9050    0.0000 H       1  UNL1        0.2098
     79 H          24.9152    1.3800    0.0000 H       1  UNL1        0.0265
     80 H          24.1181    1.3800    0.0000 H       1  UNL1        0.0265
     81 H           2.4675   -0.0699    0.0000 H       1  UNL1        0.0263
     82 H           3.2646   -0.0699    0.0000 H       1  UNL1        0.0263
     83 H          24.9842   -0.0699    0.0000 H       1  UNL1        0.0263
     84 H          25.7812   -0.0699    0.0000 H       1  UNL1        0.0263
     85 H           2.3100    1.4419    0.0000 H       1  UNL1        0.0230
     86 H           1.4631    1.2150    0.0000 H       1  UNL1        0.0230
     87 H           1.6900    0.3681    0.0000 H       1  UNL1        0.0230
     88 H          26.5587    0.3681    0.0000 H       1  UNL1        0.0230
     89 H          26.7856    1.2150    0.0000 H       1  UNL1        0.0230
     90 H          25.9387    1.4419    0.0000 H       1  UNL1        0.0230
@<TRIPOS>BOND
     1     2     1    1
     2     1    78    1
     3     2     3    1
     4     2     9    1
     5     2    31    1
     6     3     4    1
     7     3    32    1
     8     3    33    1
     9     4     5    1
    10     4    34    1
    11     4    35    1
    12     5     6    1
    13     5    36    1
    14     5    37    1
    15     6     7    1
    16     6    38    1
    17     6    39    1
    18     7     8    1
    19     7    40    1
    20     7    41    1
    21     8    10    1
    22     8    42    1
    23     8    43    1
    24     9    13    1
    25     9    44    1
    26     9    45    1
    27    10    11    1
    28    10    46    1
    29    10    47    1
    30    11    12    1
    31    11    48    1
    32    11    49    1
    33    12    14    1
    34    12    50    1
    35    12    51    1
    36    13    16    1
    37    13    52    1
    38    13    53    1
    39    14    15    1
    40    14    54    1
    41    14    55    1
    42    15    17    1
    43    15    56    1
    44    15    57    1
    45    16    19    1
    46    16    58    1
    47    16    59    1
    48    17    18    1
    49    17    60    1
    50    17    61    1
    51    18    20    1
    52    18    62    1
    53    18    63    1
    54    19    21    1
    55    19    64    1
    56    19    65    1
    57    20    22    1
    58    20    66    1
    59    20    67    1
    60    21    23    1
    61    21    68    1
    62    21    69    1
    63    22    24    1
    64    22    70    1
    65    22    71    1
    66    23    25    1
    67    23    72    1
    68    23    73    1
    69    24    26    1
    70    24    74    1
    71    24    75    1
    72    25    27    1
    73    25    76    1
    74    25    77    1
    75    26    28    1
    76    26    79    1
    77    26    80    1
    78    27    29    1
    79    27    81    1
    80    27    82    1
    81    28    30    1
    82    28    83    1
    83    28    84    1
    84    29    85    1
    85    29    86    1
    86    29    87    1
    87    30    88    1
    88    30    89    1
    89    30    90    1
