@<TRIPOS>MOLECULE
IMPHY013058
 58 60 0 0 0
SMALL
GASTEIGER

@<TRIPOS>ATOM
      1 O           2.5369    1.0000    0.0000 O.3     1  UNL1       -0.3947
      2 O           3.4030    3.5000    0.0000 O.3     1  UNL1       -0.3947
      3 O           6.8834   -0.5346    0.0000 O.3     1  UNL1       -0.4910
      4 O           8.6651    2.5242    0.0000 O.3     1  UNL1       -0.4913
      5 O           8.6651    0.4758    0.0000 O.3     1  UNL1       -0.5009
      6 O           6.8671   -2.5000    0.0000 O.3     1  UNL1       -0.4913
      7 O           3.4030   -2.5000    0.0000 O.3     1  UNL1       -0.4913
      8 O           5.1350   -3.5000    0.0000 O.3     1  UNL1       -0.5009
      9 C           4.2690    1.0000    0.0000 C.3     1  UNL1       -0.0017
     10 C           4.2690    2.0000    0.0000 C.3     1  UNL1       -0.0081
     11 C           5.1350    0.5000    0.0000 C.3     1  UNL1        0.0185
     12 C           5.1350    2.5000    0.0000 C.3     1  UNL1       -0.0219
     13 C           6.0010    1.0000    0.0000 C.ar    1  UNL1        0.0091
     14 C           6.0010    2.0000    0.0000 C.ar    1  UNL1       -0.0361
     15 C           3.4030    0.5000    0.0000 C.3     1  UNL1        0.0482
     16 C           3.4030    2.5000    0.0000 C.3     1  UNL1        0.0477
     17 C           5.1350   -0.5000    0.0000 C.ar    1  UNL1       -0.0324
     18 C           6.8950    0.4653    0.0000 C.ar    1  UNL1        0.1690
     19 C           6.8950    2.5347    0.0000 C.ar    1  UNL1       -0.0126
     20 C           4.2690   -1.0000    0.0000 C.ar    1  UNL1       -0.0123
     21 C           6.0010   -1.0000    0.0000 C.ar    1  UNL1       -0.0123
     22 C           7.8010    0.9792    0.0000 C.ar    1  UNL1        0.2013
     23 C           7.8010    2.0208    0.0000 C.ar    1  UNL1        0.1653
     24 C           6.0010   -2.0000    0.0000 C.ar    1  UNL1        0.1653
     25 C           4.2690   -2.0000    0.0000 C.ar    1  UNL1        0.1653
     26 C           5.1350   -2.5000    0.0000 C.ar    1  UNL1        0.2010
     27 C           7.7436   -1.0446    0.0000 C.3     1  UNL1        0.0790
     28 C           8.6613    3.5241    0.0000 C.3     1  UNL1        0.0790
     29 C           6.8671   -3.5000    0.0000 C.3     1  UNL1        0.0790
     30 C           2.5369   -2.0000    0.0000 C.3     1  UNL1        0.0790
     31 H           4.2690    0.3800    0.0000 H       1  UNL1        0.0335
     32 H           4.2690    2.6200    0.0000 H       1  UNL1        0.0330
     33 H           5.6720    0.1900    0.0000 H       1  UNL1        0.0402
     34 H           5.5335    2.9750    0.0000 H       1  UNL1        0.0317
     35 H           4.7365    2.9750    0.0000 H       1  UNL1        0.0317
     36 H           3.0044    0.0251    0.0000 H       1  UNL1        0.0560
     37 H           3.8015    0.0251    0.0000 H       1  UNL1        0.0560
     38 H           2.7924    2.6077    0.0000 H       1  UNL1        0.0560
     39 H           3.1909    1.9174    0.0000 H       1  UNL1        0.0560
     40 H           6.8878    3.1546    0.0000 H       1  UNL1        0.0658
     41 H           3.7320   -0.6900    0.0000 H       1  UNL1        0.0658
     42 H           6.5380   -0.6900    0.0000 H       1  UNL1        0.0658
     43 H           2.0000    0.6900    0.0000 H       1  UNL1        0.2094
     44 H           2.8660    3.8100    0.0000 H       1  UNL1        0.2094
     45 H           9.2033    0.7838    0.0000 H       1  UNL1        0.2924
     46 H           7.4274   -1.5779    0.0000 H       1  UNL1        0.0660
     47 H           8.2769   -1.3608    0.0000 H       1  UNL1        0.0660
     48 H           8.0598   -0.5113    0.0000 H       1  UNL1        0.0660
     49 H           9.2813    3.5265    0.0000 H       1  UNL1        0.0660
     50 H           8.6589    4.1441    0.0000 H       1  UNL1        0.0660
     51 H           8.0413    3.5218    0.0000 H       1  UNL1        0.0660
     52 H           4.5981   -3.8100    0.0000 H       1  UNL1        0.2924
     53 H           6.2471   -3.5000    0.0000 H       1  UNL1        0.0660
     54 H           6.8671   -4.1200    0.0000 H       1  UNL1        0.0660
     55 H           7.4871   -3.5000    0.0000 H       1  UNL1        0.0660
     56 H           2.8469   -1.4631    0.0000 H       1  UNL1        0.0660
     57 H           2.0000   -1.6900    0.0000 H       1  UNL1        0.0660
     58 H           2.2269   -2.5369    0.0000 H       1  UNL1        0.0660
@<TRIPOS>BOND
     1     1    15    1
     2     1    43    1
     3     2    16    1
     4     2    44    1
     5     3    18    1
     6     3    27    1
     7     4    23    1
     8     4    28    1
     9     5    22    1
    10     5    45    1
    11     6    24    1
    12     6    29    1
    13     7    25    1
    14     7    30    1
    15     8    26    1
    16     8    52    1
    17     9    10    1
    18     9    11    1
    19     9    15    1
    20     9    31    1
    21    10    12    1
    22    10    16    1
    23    10    32    1
    24    11    13    1
    25    11    17    1
    26    11    33    1
    27    12    14    1
    28    12    34    1
    29    12    35    1
    30    13    14   ar
    31    13    18   ar
    32    14    19   ar
    33    15    36    1
    34    15    37    1
    35    16    38    1
    36    16    39    1
    37    17    20   ar
    38    17    21   ar
    39    18    22   ar
    40    19    23   ar
    41    19    40    1
    42    20    25   ar
    43    20    41    1
    44    21    24   ar
    45    21    42    1
    46    22    23   ar
    47    24    26   ar
    48    25    26   ar
    49    27    46    1
    50    27    47    1
    51    27    48    1
    52    28    49    1
    53    28    50    1
    54    28    51    1
    55    29    53    1
    56    29    54    1
    57    29    55    1
    58    30    56    1
    59    30    57    1
    60    30    58    1
