@<TRIPOS>MOLECULE
IMPHY015423
 50 49 0 0 0
SMALL
GASTEIGER

@<TRIPOS>ATOM
      1 C           5.4641    1.0000    0.0000 C.3     1  UNL1       -0.0410
      2 C           6.3301    1.5000    0.0000 C.3     1  UNL1       -0.0502
      3 C           4.5981    1.5000    0.0000 C.3     1  UNL1       -0.0502
      4 C           5.4641    0.0000    0.0000 C.3     1  UNL1       -0.0505
      5 C           7.1962    1.0000    0.0000 C.3     1  UNL1       -0.0528
      6 C           8.0622    1.5000    0.0000 C.3     1  UNL1       -0.0530
      7 C           3.7320    1.0000    0.0000 C.3     1  UNL1       -0.0531
      8 C           4.5981   -0.5000    0.0000 C.3     1  UNL1       -0.0557
      9 C           8.9282    1.0000    0.0000 C.3     1  UNL1       -0.0531
     10 C           9.7942    1.5000    0.0000 C.3     1  UNL1       -0.0531
     11 C           2.8660    1.5000    0.0000 C.3     1  UNL1       -0.0559
     12 C          10.6603    1.0000    0.0000 C.3     1  UNL1       -0.0533
     13 C           4.5981   -1.5000    0.0000 C.3     1  UNL1       -0.0653
     14 C           2.0000    1.0000    0.0000 C.3     1  UNL1       -0.0653
     15 C          11.5263    1.5000    0.0000 C.3     1  UNL1       -0.0559
     16 C          12.3923    1.0000    0.0000 C.3     1  UNL1       -0.0653
     17 H           5.4641    1.6200    0.0000 H       1  UNL1        0.0301
     18 H           6.7287    1.9750    0.0000 H       1  UNL1        0.0268
     19 H           5.9316    1.9750    0.0000 H       1  UNL1        0.0268
     20 H           4.9966    1.9750    0.0000 H       1  UNL1        0.0268
     21 H           4.1996    1.9750    0.0000 H       1  UNL1        0.0268
     22 H           5.6762   -0.5826    0.0000 H       1  UNL1        0.0268
     23 H           6.0747    0.1077    0.0000 H       1  UNL1        0.0268
     24 H           6.7976    0.5251    0.0000 H       1  UNL1        0.0265
     25 H           7.5947    0.5251    0.0000 H       1  UNL1        0.0265
     26 H           8.4607    1.9750    0.0000 H       1  UNL1        0.0265
     27 H           7.6636    1.9750    0.0000 H       1  UNL1        0.0265
     28 H           3.3335    0.5251    0.0000 H       1  UNL1        0.0265
     29 H           4.1306    0.5251    0.0000 H       1  UNL1        0.0265
     30 H           4.3860    0.0826    0.0000 H       1  UNL1        0.0263
     31 H           3.9875   -0.6077    0.0000 H       1  UNL1        0.0263
     32 H           8.5297    0.5251    0.0000 H       1  UNL1        0.0265
     33 H           9.3267    0.5251    0.0000 H       1  UNL1        0.0265
     34 H          10.1928    1.9750    0.0000 H       1  UNL1        0.0265
     35 H           9.3957    1.9750    0.0000 H       1  UNL1        0.0265
     36 H           3.2646    1.9750    0.0000 H       1  UNL1        0.0263
     37 H           2.4675    1.9750    0.0000 H       1  UNL1        0.0263
     38 H          10.2617    0.5251    0.0000 H       1  UNL1        0.0265
     39 H          11.0588    0.5251    0.0000 H       1  UNL1        0.0265
     40 H           3.9781   -1.5000    0.0000 H       1  UNL1        0.0230
     41 H           4.5981   -2.1200    0.0000 H       1  UNL1        0.0230
     42 H           5.2181   -1.5000    0.0000 H       1  UNL1        0.0230
     43 H           1.6900    1.5369    0.0000 H       1  UNL1        0.0230
     44 H           1.4631    0.6900    0.0000 H       1  UNL1        0.0230
     45 H           2.3100    0.4631    0.0000 H       1  UNL1        0.0230
     46 H          11.9248    1.9750    0.0000 H       1  UNL1        0.0263
     47 H          11.1278    1.9750    0.0000 H       1  UNL1        0.0263
     48 H          12.0823    0.4631    0.0000 H       1  UNL1        0.0230
     49 H          12.9292    0.6900    0.0000 H       1  UNL1        0.0230
     50 H          12.7023    1.5369    0.0000 H       1  UNL1        0.0230
@<TRIPOS>BOND
     1     1     2    1
     2     1     3    1
     3     1     4    1
     4     1    17    1
     5     2     5    1
     6     2    18    1
     7     2    19    1
     8     3     7    1
     9     3    20    1
    10     3    21    1
    11     4     8    1
    12     4    22    1
    13     4    23    1
    14     5     6    1
    15     5    24    1
    16     5    25    1
    17     6     9    1
    18     6    26    1
    19     6    27    1
    20     7    11    1
    21     7    28    1
    22     7    29    1
    23     8    13    1
    24     8    30    1
    25     8    31    1
    26     9    10    1
    27     9    32    1
    28     9    33    1
    29    10    12    1
    30    10    34    1
    31    10    35    1
    32    11    14    1
    33    11    36    1
    34    11    37    1
    35    12    15    1
    36    12    38    1
    37    12    39    1
    38    13    40    1
    39    13    41    1
    40    13    42    1
    41    14    43    1
    42    14    44    1
    43    14    45    1
    44    15    16    1
    45    15    46    1
    46    15    47    1
    47    16    48    1
    48    16    49    1
    49    16    50    1
