@<TRIPOS>MOLECULE
IMPHY005448
 38 41 0 0 0
SMALL
GASTEIGER

@<TRIPOS>ATOM
      1 O           9.6654   -1.0777    0.0000 O.3     1  UNL1       -0.4814
      2 O           6.0682   -1.0000    0.0000 O.2     1  UNL1       -0.4506
      3 O           7.8167    2.0346    0.0000 O.3     1  UNL1       -0.5052
      4 O           6.0682    2.0000    0.0000 O.2     1  UNL1       -0.2863
      5 O           4.3198   -2.0346    0.0000 O.3     1  UNL1       -0.5009
      6 O           2.5381   -1.0241    0.0000 O.3     1  UNL1       -0.5032
      7 C          10.6092   -0.5425    0.0000 C.3     1  UNL1        0.1235
      8 C           8.7343    0.5208    0.0000 C.ar    1  UNL1        0.0588
      9 C           8.7343   -0.5208    0.0000 C.ar    1  UNL1        0.1359
     10 C          10.6092    0.5425    0.0000 C.2     1  UNL1       -0.0408
     11 C           6.9343    0.5000    0.0000 C.ar    1  UNL1        0.1067
     12 C           7.8282    1.0347    0.0000 C.ar    1  UNL1        0.1418
     13 C           6.9343   -0.5000    0.0000 C.ar    1  UNL1        0.1465
     14 C           9.6654    1.0777    0.0000 C.2     1  UNL1       -0.0478
     15 C          11.6092   -0.5464    0.0000 C.3     1  UNL1       -0.0215
     16 C          11.1059   -1.4104    0.0000 C.3     1  UNL1       -0.0215
     17 C           7.8282   -1.0347    0.0000 C.ar    1  UNL1        0.0240
     18 C           6.0682    1.0000    0.0000 C.ar    1  UNL1        0.2039
     19 C           5.2022    0.5000    0.0000 C.ar    1  UNL1        0.0686
     20 C           5.2022   -0.5000    0.0000 C.ar    1  UNL1        0.1841
     21 C           4.3083   -1.0347    0.0000 C.ar    1  UNL1        0.2021
     22 C           4.3083    1.0347    0.0000 C.ar    1  UNL1       -0.0437
     23 C           3.4022   -0.5208    0.0000 C.ar    1  UNL1        0.1620
     24 C           3.4022    0.5208    0.0000 C.ar    1  UNL1       -0.0156
     25 H          11.1450    0.8546    0.0000 H       1  UNL1        0.0611
     26 H           9.6583    1.6977    0.0000 H       1  UNL1        0.0624
     27 H          10.5678   -1.7184    0.0000 H       1  UNL1        0.0271
     28 H          11.4138   -1.9486    0.0000 H       1  UNL1        0.0271
     29 H          11.6440   -1.1025    0.0000 H       1  UNL1        0.0271
     30 H          11.6068   -1.1664    0.0000 H       1  UNL1        0.0271
     31 H          12.2292   -0.5487    0.0000 H       1  UNL1        0.0271
     32 H          11.6116    0.0736    0.0000 H       1  UNL1        0.0271
     33 H           7.8210   -1.6546    0.0000 H       1  UNL1        0.0691
     34 H           4.3154    1.6546    0.0000 H       1  UNL1        0.0627
     35 H           2.8665    0.8329    0.0000 H       1  UNL1        0.0655
     36 H           8.3500    2.3508    0.0000 H       1  UNL1        0.2922
     37 H           3.7865   -2.3508    0.0000 H       1  UNL1        0.2924
     38 H           2.0000   -0.7162    0.0000 H       1  UNL1        0.2923
@<TRIPOS>BOND
     1     1     7    1
     2     1     9    1
     3     2    13   ar
     4     2    20   ar
     5     3    12    1
     6     3    36    1
     7     4    18    2
     8     5    21    1
     9     5    37    1
    10     6    23    1
    11     6    38    1
    12     7    10    1
    13     7    15    1
    14     7    16    1
    15     8     9   ar
    16     8    12   ar
    17     8    14    1
    18     9    17   ar
    19    10    14    2
    20    10    25    1
    21    11    12   ar
    22    11    13   ar
    23    11    18   ar
    24    13    17   ar
    25    14    26    1
    26    15    30    1
    27    15    31    1
    28    15    32    1
    29    16    27    1
    30    16    28    1
    31    16    29    1
    32    17    33    1
    33    18    19   ar
    34    19    20   ar
    35    19    22   ar
    36    20    21   ar
    37    21    23   ar
    38    22    24   ar
    39    22    34    1
    40    23    24   ar
    41    24    35    1
