@<TRIPOS>MOLECULE
IMPHY010056
 62 67 0 0 0
SMALL
GASTEIGER

@<TRIPOS>ATOM
      1 O           3.7733   -1.6426    0.0000 O.3     1  UNL1       -0.3878
      2 O           7.1135    0.9504    0.0000 O.3     1  UNL1       -0.3791
      3 O           3.3967    0.5245    0.0000 O.3     1  UNL1       -0.3910
      4 O           2.9959    1.4083    0.0000 O.3     1  UNL1       -0.3793
      5 N           8.3089   -0.8787    0.0000 N.3     1  UNL1       -0.2984
      6 C           6.3622   -0.4834    0.0000 C.3     1  UNL1        0.0192
      7 C           5.6839    0.0575    0.0000 C.3     1  UNL1       -0.0231
      8 C           7.3642   -0.5895    0.0000 C.3     1  UNL1        0.0244
      9 C           6.3622   -1.3510    0.0000 C.3     1  UNL1       -0.0269
     10 C           4.8381   -1.6989    0.0000 C.3     1  UNL1        0.0048
     11 C           4.8381   -0.1356    0.0000 C.3     1  UNL1        0.0181
     12 C           4.4616   -0.9172    0.0000 C.3     1  UNL1        0.0781
     13 C           5.6839   -1.8919    0.0000 C.3     1  UNL1       -0.0424
     14 C           7.1135   -1.7848    0.0000 C.3     1  UNL1       -0.0247
     15 C           7.1135   -0.0496    0.0000 C.3     1  UNL1        0.0659
     16 C           5.7617    0.9216    0.0000 C.3     1  UNL1       -0.0416
     17 C           4.9639    1.2626    0.0000 C.3     1  UNL1        0.0120
     18 C           4.3931    0.6092    0.0000 C.3     1  UNL1        0.0661
     19 C           3.8168   -0.6473    0.0000 C.3     1  UNL1        0.0034
     20 C           8.3089   -1.6306    0.0000 C.3     1  UNL1        0.0023
     21 C           3.8168    0.8372    0.0000 C.3     1  UNL1        0.0661
     22 C           7.8649   -1.3510    0.0000 C.3     1  UNL1       -0.0464
     23 C           7.8649   -0.4834    0.0000 C.3     1  UNL1       -0.0257
     24 C           9.1128   -0.2840    0.0000 C.3     1  UNL1       -0.0036
     25 C          10.0298   -0.6829    0.0000 C.3     1  UNL1       -0.0523
     26 C           7.9796    1.4504    0.0000 C.3     1  UNL1        0.0368
     27 C           3.0800    2.4048    0.0000 C.3     1  UNL1        0.0368
     28 H           6.4655    0.3916    0.0000 H       1  UNL1        0.0312
     29 H           7.4881    0.0180    0.0000 H       1  UNL1        0.0473
     30 H           6.4257   -2.1986    0.0000 H       1  UNL1        0.0311
     31 H           4.3081   -2.3634    0.0000 H       1  UNL1        0.0344
     32 H           3.9889   -0.1737    0.0000 H       1  UNL1        0.0357
     33 H           6.1686   -2.2785    0.0000 H       1  UNL1        0.0272
     34 H           5.4149   -2.4505    0.0000 H       1  UNL1        0.0272
     35 H           7.1135   -2.6348    0.0000 H       1  UNL1        0.0316
     36 H           6.5766    0.2604    0.0000 H       1  UNL1        0.0602
     37 H           5.9444    1.5140    0.0000 H       1  UNL1        0.0272
     38 H           6.3700    0.8018    0.0000 H       1  UNL1        0.0272
     39 H           4.9847    2.1123    0.0000 H       1  UNL1        0.0351
     40 H           4.1130    1.1623    0.0000 H       1  UNL1        0.0600
     41 H           3.6548   -1.2458    0.0000 H       1  UNL1        0.0318
     42 H           3.2022   -0.5656    0.0000 H       1  UNL1        0.0318
     43 H           8.9283   -1.6040    0.0000 H       1  UNL1        0.0429
     44 H           8.3618   -2.2483    0.0000 H       1  UNL1        0.0429
     45 H           3.8949    1.4523    0.0000 H       1  UNL1        0.0600
     46 H           8.4755   -1.2434    0.0000 H       1  UNL1        0.0269
     47 H           8.0769   -1.9336    0.0000 H       1  UNL1        0.0269
     48 H           8.0769    0.0992    0.0000 H       1  UNL1        0.0290
     49 H           8.4755   -0.5911    0.0000 H       1  UNL1        0.0290
     50 H           3.1704   -1.4979    0.0000 H       1  UNL1        0.2102
     51 H           8.6632    0.1429    0.0000 H       1  UNL1        0.0424
     52 H           9.4551    0.2330    0.0000 H       1  UNL1        0.0424
     53 H           3.1333   -0.0367    0.0000 H       1  UNL1        0.2098
     54 H          10.2772   -0.1144    0.0000 H       1  UNL1        0.0242
     55 H          10.5984   -0.9302    0.0000 H       1  UNL1        0.0242
     56 H           9.7825   -1.2514    0.0000 H       1  UNL1        0.0242
     57 H           7.6696    1.9873    0.0000 H       1  UNL1        0.0524
     58 H           8.5165    1.7604    0.0000 H       1  UNL1        0.0524
     59 H           8.2896    0.9134    0.0000 H       1  UNL1        0.0524
     60 H           2.4622    2.4570    0.0000 H       1  UNL1        0.0524
     61 H           3.1322    3.0226    0.0000 H       1  UNL1        0.0524
     62 H           3.6978    2.3526    0.0000 H       1  UNL1        0.0524
@<TRIPOS>BOND
     1    12     1    1
     2     1    50    1
     3    15     2    1
     4     2    26    1
     5    18     3    1
     6     3    53    1
     7    21     4    1
     8     4    27    1
     9     5     8    1
    10     5    20    1
    11     5    24    1
    12     6     7    1
    13     6     8    1
    14     6     9    1
    15     6    15    1
    16     7    11    1
    17     7    16    1
    18     7    28    1
    19     8    10    1
    20     8    29    1
    21     9    13    1
    22     9    14    1
    23     9    30    1
    24    10    12    1
    25    10    13    1
    26    10    31    1
    27    11    12    1
    28    11    18    1
    29    11    32    1
    30    12    19    1
    31    13    33    1
    32    13    34    1
    33    14    20    1
    34    14    22    1
    35    14    35    1
    36    15    23    1
    37    15    36    1
    38    16    17    1
    39    16    37    1
    40    16    38    1
    41    17    18    1
    42    17    21    1
    43    17    39    1
    44    18    40    1
    45    19    21    1
    46    19    41    1
    47    19    42    1
    48    20    43    1
    49    20    44    1
    50    21    45    1
    51    22    23    1
    52    22    46    1
    53    22    47    1
    54    23    48    1
    55    23    49    1
    56    24    25    1
    57    24    51    1
    58    24    52    1
    59    25    54    1
    60    25    55    1
    61    25    56    1
    62    26    57    1
    63    26    58    1
    64    26    59    1
    65    27    60    1
    66    27    61    1
    67    27    62    1
