@<TRIPOS>MOLECULE
IMPHY010811
 31 30 0 0 0
SMALL
GASTEIGER

@<TRIPOS>ATOM
      1 O          10.6603    0.2500    0.0000 O.3     1  UNL1       -0.3950
      2 C           6.3301   -0.2500    0.0000 C.3     1  UNL1       -0.0530
      3 C           7.1962    0.2500    0.0000 C.3     1  UNL1       -0.0530
      4 C           5.4641    0.2500    0.0000 C.3     1  UNL1       -0.0528
      5 C           8.0622   -0.2500    0.0000 C.3     1  UNL1       -0.0510
      6 C           4.5981   -0.2500    0.0000 C.3     1  UNL1       -0.0496
      7 C           8.9282    0.2500    0.0000 C.3     1  UNL1       -0.0297
      8 C           3.7320    0.2500    0.0000 C.3     1  UNL1       -0.0350
      9 C           9.7942   -0.2500    0.0000 C.3     1  UNL1        0.0442
     10 C           2.8660   -0.2500    0.0000 C.2     1  UNL1       -0.0911
     11 C           2.0000    0.2500    0.0000 C.2     1  UNL1       -0.1026
     12 H           5.9316   -0.7249    0.0000 H       1  UNL1        0.0265
     13 H           6.7287   -0.7249    0.0000 H       1  UNL1        0.0265
     14 H           7.5947    0.7249    0.0000 H       1  UNL1        0.0265
     15 H           6.7976    0.7249    0.0000 H       1  UNL1        0.0265
     16 H           5.8626    0.7249    0.0000 H       1  UNL1        0.0265
     17 H           5.0656    0.7249    0.0000 H       1  UNL1        0.0265
     18 H           7.6636   -0.7249    0.0000 H       1  UNL1        0.0266
     19 H           8.4607   -0.7249    0.0000 H       1  UNL1        0.0266
     20 H           4.1996   -0.7249    0.0000 H       1  UNL1        0.0268
     21 H           4.9966   -0.7249    0.0000 H       1  UNL1        0.0268
     22 H           9.3267    0.7249    0.0000 H       1  UNL1        0.0287
     23 H           8.5297    0.7249    0.0000 H       1  UNL1        0.0287
     24 H           4.1306    0.7249    0.0000 H       1  UNL1        0.0307
     25 H           3.3335    0.7249    0.0000 H       1  UNL1        0.0307
     26 H           9.3957   -0.7249    0.0000 H       1  UNL1        0.0557
     27 H          10.1928   -0.7249    0.0000 H       1  UNL1        0.0557
     28 H           2.8660   -0.8700    0.0000 H       1  UNL1        0.0566
     29 H          11.1972   -0.0600    0.0000 H       1  UNL1        0.2094
     30 H           2.0000    0.8700    0.0000 H       1  UNL1        0.0532
     31 H           1.4631   -0.0600    0.0000 H       1  UNL1        0.0532
@<TRIPOS>BOND
     1     1     9    1
     2     1    29    1
     3     2     3    1
     4     2     4    1
     5     2    12    1
     6     2    13    1
     7     3     5    1
     8     3    14    1
     9     3    15    1
    10     4     6    1
    11     4    16    1
    12     4    17    1
    13     5     7    1
    14     5    18    1
    15     5    19    1
    16     6     8    1
    17     6    20    1
    18     6    21    1
    19     7     9    1
    20     7    22    1
    21     7    23    1
    22     8    10    1
    23     8    24    1
    24     8    25    1
    25     9    26    1
    26     9    27    1
    27    10    11    2
    28    10    28    1
    29    11    30    1
    30    11    31    1
