@<TRIPOS>MOLECULE
IMPHY002612
 50 53 0 0 0
SMALL
GASTEIGER

@<TRIPOS>ATOM
      1 O           5.5625   -1.2968    0.0000 O.3     1  UNL1       -0.3588
      2 O           3.7739    3.7792    0.0000 O.3     1  UNL1       -0.3837
      3 O           2.0000   -2.3351    0.0000 O.2     1  UNL1       -0.2917
      4 O           2.0000    2.7551    0.0000 O.2     1  UNL1       -0.2946
      5 C           4.6520   -0.7900    0.0000 C.3     1  UNL1        0.1191
      6 C           3.7860    0.7100    0.0000 C.3     1  UNL1        0.0022
      7 C           4.6681   -1.8315    0.0000 C.3     1  UNL1        0.1084
      8 C           4.6520    1.2100    0.0000 C.3     1  UNL1       -0.0234
      9 C           3.7860   -0.2900    0.0000 C.2     1  UNL1       -0.0258
     10 C           5.5180   -0.2900    0.0000 C.3     1  UNL1       -0.0170
     11 C           5.5180    0.7100    0.0000 C.3     1  UNL1       -0.0458
     12 C           4.6681    2.2515    0.0000 C.3     1  UNL1        0.0016
     13 C           3.7700   -2.3593    0.0000 C.3     1  UNL1        0.0770
     14 C           2.8760    1.2168    0.0000 C.3     1  UNL1        0.0179
     15 C           3.7700    2.7793    0.0000 C.3     1  UNL1        0.1183
     16 C           2.8760   -0.7969    0.0000 C.2     1  UNL1       -0.0157
     17 C           2.9200    0.2100    0.0000 C.3     1  UNL1       -0.0551
     18 C           2.8680   -1.8385    0.0000 C.2     1  UNL1        0.1683
     19 C           2.8680    2.2584    0.0000 C.2     1  UNL1        0.1629
     20 C           5.1780    3.1117    0.0000 C.3     1  UNL1       -0.0568
     21 C           5.6680    2.2399    0.0000 C.3     1  UNL1       -0.0568
     22 C           4.2734   -3.2234    0.0000 C.3     1  UNL1       -0.0465
     23 C           3.2734   -3.2272    0.0000 C.2     1  UNL1       -0.0753
     24 C           3.7767   -4.0913    0.0000 C.2     1  UNL1       -0.1016
     25 H           4.9842   -2.3649    0.0000 H       1  UNL1        0.0642
     26 H           5.1913    1.5158    0.0000 H       1  UNL1        0.0315
     27 H           5.7301   -0.8726    0.0000 H       1  UNL1        0.0297
     28 H           6.1286   -0.1823    0.0000 H       1  UNL1        0.0297
     29 H           6.1286    0.6023    0.0000 H       1  UNL1        0.0269
     30 H           5.7301    1.2926    0.0000 H       1  UNL1        0.0269
     31 H           2.2643    1.3182    0.0000 H       1  UNL1        0.0351
     32 H           2.6714    0.6315    0.0000 H       1  UNL1        0.0351
     33 H           4.3087    3.0861    0.0000 H       1  UNL1        0.0678
     34 H           2.3427   -0.4807    0.0000 H       1  UNL1        0.0653
     35 H           2.6100    0.7469    0.0000 H       1  UNL1        0.0238
     36 H           2.3830   -0.1000    0.0000 H       1  UNL1        0.0238
     37 H           3.2300   -0.3269    0.0000 H       1  UNL1        0.0238
     38 H           5.7114    2.7955    0.0000 H       1  UNL1        0.0236
     39 H           5.4942    3.6450    0.0000 H       1  UNL1        0.0236
     40 H           4.6447    3.4279    0.0000 H       1  UNL1        0.0236
     41 H           5.6608    1.6200    0.0000 H       1  UNL1        0.0236
     42 H           6.2880    2.2328    0.0000 H       1  UNL1        0.0236
     43 H           5.6752    2.8599    0.0000 H       1  UNL1        0.0236
     44 H           3.7376   -3.5354    0.0000 H       1  UNL1        0.0243
     45 H           4.5854   -3.7591    0.0000 H       1  UNL1        0.0243
     46 H           4.8091   -2.9113    0.0000 H       1  UNL1        0.0243
     47 H           2.6534   -3.2296    0.0000 H       1  UNL1        0.0577
     48 H           3.2381    4.0913    0.0000 H       1  UNL1        0.2104
     49 H           3.4688   -4.6294    0.0000 H       1  UNL1        0.0532
     50 H           4.3967   -4.0889    0.0000 H       1  UNL1        0.0532
@<TRIPOS>BOND
     1     1     5    1
     2     1     7    1
     3     2    15    1
     4     2    48    1
     5     3    18    2
     6     4    19    2
     7     5     7    1
     8     5     9    1
     9     5    10    1
    10     6     8    1
    11     6     9    1
    12     6    14    1
    13     6    17    1
    14     7    13    1
    15     7    25    1
    16     8    11    1
    17     8    12    1
    18     8    26    1
    19     9    16    2
    20    10    11    1
    21    10    27    1
    22    10    28    1
    23    11    29    1
    24    11    30    1
    25    12    15    1
    26    12    20    1
    27    12    21    1
    28    13    18    1
    29    13    22    1
    30    13    23    1
    31    14    19    1
    32    14    31    1
    33    14    32    1
    34    15    19    1
    35    15    33    1
    36    16    18    1
    37    16    34    1
    38    17    35    1
    39    17    36    1
    40    17    37    1
    41    20    38    1
    42    20    39    1
    43    20    40    1
    44    21    41    1
    45    21    42    1
    46    21    43    1
    47    22    44    1
    48    22    45    1
    49    22    46    1
    50    23    24    2
    51    23    47    1
    52    24    49    1
    53    24    50    1
