@<TRIPOS>MOLECULE
IMPHY009296
 46 48 0 0 0
SMALL
GASTEIGER

@<TRIPOS>ATOM
      1 O           5.5103    2.2589    0.0000 O.2     1  UNL1       -0.2920
      2 O           4.6497    1.7620    0.0000 O.3     1  UNL1       -0.5029
      3 O           2.8680    0.7516    0.0000 O.3     1  UNL1       -0.5031
      4 C           8.1741    0.7343    0.0000 C.3     1  UNL1       -0.0125
      5 C           7.2641    0.2274    0.0000 C.2     1  UNL1       -0.0524
      6 C           8.1821    1.7759    0.0000 C.3     1  UNL1       -0.0371
      7 C           6.3981    0.7274    0.0000 C.2     1  UNL1        0.0282
      8 C           7.2641   -0.7726    0.0000 C.3     1  UNL1       -0.0263
      9 C           7.2800    2.2967    0.0000 C.3     1  UNL1        0.0113
     10 C           6.3981   -1.2726    0.0000 C.3     1  UNL1       -0.0232
     11 C           5.5320    0.2274    0.0000 C.ar    1  UNL1        0.0337
     12 C           9.1740    0.7227    0.0000 C.3     1  UNL1       -0.0561
     13 C           8.6640   -0.1375    0.0000 C.3     1  UNL1       -0.0561
     14 C           5.5320   -0.7726    0.0000 C.ar    1  UNL1       -0.0353
     15 C           6.3820    1.7690    0.0000 C.2     1  UNL1        0.1639
     16 C           4.6381    0.7621    0.0000 C.ar    1  UNL1        0.1667
     17 C           4.6381   -1.3072    0.0000 C.ar    1  UNL1       -0.0509
     18 C           3.7320   -0.7934    0.0000 C.ar    1  UNL1        0.0006
     19 C           3.7320    0.2483    0.0000 C.ar    1  UNL1        0.1623
     20 C           2.8680   -1.2967    0.0000 C.3     1  UNL1       -0.0179
     21 C           2.8718   -2.2967    0.0000 C.3     1  UNL1       -0.0585
     22 C           2.0000   -0.8001    0.0000 C.3     1  UNL1       -0.0585
     23 H           8.7922    1.6651    0.0000 H       1  UNL1        0.0278
     24 H           8.3957    2.3580    0.0000 H       1  UNL1        0.0278
     25 H           7.4762   -1.3552    0.0000 H       1  UNL1        0.0314
     26 H           7.8747   -0.6649    0.0000 H       1  UNL1        0.0314
     27 H           7.6774    2.7727    0.0000 H       1  UNL1        0.0345
     28 H           6.8791    2.7696    0.0000 H       1  UNL1        0.0345
     29 H           5.9995   -1.7475    0.0000 H       1  UNL1        0.0316
     30 H           6.7966   -1.7475    0.0000 H       1  UNL1        0.0316
     31 H           9.1669    0.1028    0.0000 H       1  UNL1        0.0238
     32 H           8.1236   -0.4412    0.0000 H       1  UNL1        0.0238
     33 H           8.9678   -0.6779    0.0000 H       1  UNL1        0.0238
     34 H           9.2045    0.1663    0.0000 H       1  UNL1        0.0238
     35 H           9.7940    0.7156    0.0000 H       1  UNL1        0.0238
     36 H           9.1812    1.3427    0.0000 H       1  UNL1        0.0238
     37 H           4.6453   -1.9272    0.0000 H       1  UNL1        0.0624
     38 H           2.3322   -1.6088    0.0000 H       1  UNL1        0.0345
     39 H           2.2518   -2.2991    0.0000 H       1  UNL1        0.0235
     40 H           2.8742   -2.9167    0.0000 H       1  UNL1        0.0235
     41 H           3.4918   -2.2943    0.0000 H       1  UNL1        0.0235
     42 H           2.3079   -0.2619    0.0000 H       1  UNL1        0.0235
     43 H           1.4619   -0.4921    0.0000 H       1  UNL1        0.0235
     44 H           1.6921   -1.3382    0.0000 H       1  UNL1        0.0235
     45 H           4.1164    2.0782    0.0000 H       1  UNL1        0.2923
     46 H           2.8703    1.3716    0.0000 H       1  UNL1        0.2923
@<TRIPOS>BOND
     1     1    15    2
     2     2    16    1
     3     2    45    1
     4     3    19    1
     5     3    46    1
     6     4     5    1
     7     4     6    1
     8     4    12    1
     9     4    13    1
    10     5     7    2
    11     5     8    1
    12     6     9    1
    13     6    23    1
    14     6    24    1
    15     7    11    1
    16     7    15    1
    17     8    10    1
    18     8    25    1
    19     8    26    1
    20     9    15    1
    21     9    27    1
    22     9    28    1
    23    10    14    1
    24    10    29    1
    25    10    30    1
    26    11    14   ar
    27    11    16   ar
    28    12    31    1
    29    12    35    1
    30    12    36    1
    31    13    32    1
    32    13    33    1
    33    13    34    1
    34    14    17   ar
    35    16    19   ar
    36    17    18   ar
    37    17    37    1
    38    18    19   ar
    39    18    20    1
    40    20    21    1
    41    20    22    1
    42    20    38    1
    43    21    39    1
    44    21    40    1
    45    21    41    1
    46    22    42    1
    47    22    43    1
    48    22    44    1
