@<TRIPOS>MOLECULE
IMPHY012649
 84 88 0 0 0
SMALL
GASTEIGER

@<TRIPOS>ATOM
      1 O           2.5357   -1.8922    0.0000 O.3     1  UNL1       -0.3886
      2 O           2.5519    0.1994    0.0000 O.3     1  UNL1       -0.3892
      3 O           7.9222    3.2627    0.0000 O.3     1  UNL1       -0.3906
      4 O           4.3500   -3.6701    0.0000 O.3     1  UNL1       -0.3944
      5 O          11.4608    1.1943    0.0000 O.3     1  UNL1       -0.4802
      6 O          10.6064   -0.3123    0.0000 O.2     1  UNL1       -0.2504
      7 C           7.0628   -0.3398    0.0000 C.3     1  UNL1       -0.0194
      8 C           6.1968    0.1601    0.0000 C.3     1  UNL1       -0.0257
      9 C           5.2868   -0.3467    0.0000 C.3     1  UNL1       -0.0225
     10 C           7.9288    0.1601    0.0000 C.3     1  UNL1       -0.0050
     11 C           5.2787   -1.3883    0.0000 C.3     1  UNL1       -0.0253
     12 C           7.0789   -1.3814    0.0000 C.3     1  UNL1       -0.0463
     13 C           6.1808   -1.9091    0.0000 C.3     1  UNL1       -0.0485
     14 C           7.9288    1.1602    0.0000 C.2     1  UNL1       -0.0604
     15 C           4.3433   -1.9380    0.0000 C.3     1  UNL1        0.0227
     16 C           8.8228    1.6948    0.0000 C.3     1  UNL1        0.0229
     17 C           6.1968    1.1602    0.0000 C.3     1  UNL1       -0.0306
     18 C           4.3599    0.2174    0.0000 C.3     1  UNL1       -0.0184
     19 C           8.8228   -0.3745    0.0000 C.3     1  UNL1       -0.0424
     20 C           9.7288    1.1810    0.0000 C.3     1  UNL1        0.0765
     21 C           7.7056   -1.1059    0.0000 C.3     1  UNL1       -0.0585
     22 C           9.7288    0.1393    0.0000 C.3     1  UNL1       -0.0358
     23 C           3.4037   -1.3955    0.0000 C.3     1  UNL1        0.0888
     24 C           3.4120   -0.3106    0.0000 C.3     1  UNL1        0.0822
     25 C           7.0628    1.6602    0.0000 C.2     1  UNL1       -0.0836
     26 C           5.2945    0.6533    0.0000 C.3     1  UNL1       -0.0589
     27 C           8.2709   -0.7795    0.0000 C.3     1  UNL1       -0.0553
     28 C           8.7977    2.7795    0.0000 C.3     1  UNL1        0.0678
     29 C          10.6726    1.7162    0.0000 C.3     1  UNL1       -0.0360
     30 C           9.7288    3.3364    0.0000 C.3     1  UNL1       -0.0083
     31 C           3.8467   -2.8060    0.0000 C.3     1  UNL1        0.0523
     32 C           4.8466   -2.8021    0.0000 C.3     1  UNL1       -0.0547
     33 C          10.6726    2.8012    0.0000 C.3     1  UNL1       -0.0445
     34 C          10.5987    0.6877    0.0000 C.2     1  UNL1        0.3116
     35 C          10.2188    4.2082    0.0000 C.3     1  UNL1       -0.0574
     36 C           9.2188    4.1966    0.0000 C.3     1  UNL1       -0.0574
     37 H           6.7337    0.4702    0.0000 H       1  UNL1        0.0315
     38 H           5.2811   -2.0083    0.0000 H       1  UNL1        0.0313
     39 H           7.2969   -1.9618    0.0000 H       1  UNL1        0.0271
     40 H           7.6880   -1.2659    0.0000 H       1  UNL1        0.0271
     41 H           5.7835   -2.3851    0.0000 H       1  UNL1        0.0268
     42 H           6.5818   -2.3820    0.0000 H       1  UNL1        0.0268
     43 H           8.2800    1.9944    0.0000 H       1  UNL1        0.0382
     44 H           5.9847    1.7428    0.0000 H       1  UNL1        0.0310
     45 H           5.5862    1.0525    0.0000 H       1  UNL1        0.0310
     46 H           4.7681    0.6840    0.0000 H       1  UNL1        0.0296
     47 H           3.9700    0.6994    0.0000 H       1  UNL1        0.0296
     48 H           8.4182   -0.8443    0.0000 H       1  UNL1        0.0274
     49 H           9.2164   -0.8535    0.0000 H       1  UNL1        0.0274
     50 H           7.2306   -1.5044    0.0000 H       1  UNL1        0.0235
     51 H           8.1041   -1.5808    0.0000 H       1  UNL1        0.0235
     52 H           8.1805   -0.7074    0.0000 H       1  UNL1        0.0235
     53 H           9.9379   -0.4444    0.0000 H       1  UNL1        0.0276
     54 H          10.3397    0.2454    0.0000 H       1  UNL1        0.0276
     55 H           3.4025   -2.0155    0.0000 H       1  UNL1        0.0625
     56 H           7.0628    2.2802    0.0000 H       1  UNL1        0.0572
     57 H           2.8722   -0.6154    0.0000 H       1  UNL1        0.0619
     58 H           5.9145    0.6485    0.0000 H       1  UNL1        0.0235
     59 H           5.2993    1.2733    0.0000 H       1  UNL1        0.0235
     60 H           4.6745    0.6581    0.0000 H       1  UNL1        0.0235
     61 H           7.6884   -0.9916    0.0000 H       1  UNL1        0.0238
     62 H           8.4830   -1.3621    0.0000 H       1  UNL1        0.0238
     63 H           8.8535   -0.5674    0.0000 H       1  UNL1        0.0238
     64 H           8.2674    2.4582    0.0000 H       1  UNL1        0.0605
     65 H          10.8817    1.1325    0.0000 H       1  UNL1        0.0276
     66 H          11.2835    1.8223    0.0000 H       1  UNL1        0.0276
     67 H           3.3702   -2.4093    0.0000 H       1  UNL1        0.0563
     68 H           3.3732   -3.2063    0.0000 H       1  UNL1        0.0563
     69 H           4.3109   -3.1142    0.0000 H       1  UNL1        0.0237
     70 H           5.1587   -3.3378    0.0000 H       1  UNL1        0.0237
     71 H           5.3824   -2.4900    0.0000 H       1  UNL1        0.0237
     72 H          11.2835    2.6951    0.0000 H       1  UNL1        0.0272
     73 H          10.8817    3.3849    0.0000 H       1  UNL1        0.0272
     74 H          10.7593    3.9044    0.0000 H       1  UNL1        0.0236
     75 H          10.5226    4.7487    0.0000 H       1  UNL1        0.0236
     76 H           9.6783    4.5120    0.0000 H       1  UNL1        0.0236
     77 H           9.7522    4.5128    0.0000 H       1  UNL1        0.0236
     78 H           8.9027    4.7299    0.0000 H       1  UNL1        0.0236
     79 H           8.6855    3.8804    0.0000 H       1  UNL1        0.0236
     80 H           2.0000   -1.5801    0.0000 H       1  UNL1        0.2099
     81 H           2.5590    0.8194    0.0000 H       1  UNL1        0.2099
     82 H           7.9102    3.8826    0.0000 H       1  UNL1        0.2098
     83 H           4.0421   -4.2082    0.0000 H       1  UNL1        0.2094
     84 H          12.0001    0.8885    0.0000 H       1  UNL1        0.2951
@<TRIPOS>BOND
     1     1    23    1
     2     1    80    1
     3     2    24    1
     4     2    81    1
     5     3    28    1
     6     3    82    1
     7     4    31    1
     8     4    83    1
     9     5    34    1
    10     5    84    1
    11     6    34    2
    12     7     8    1
    13     7    10    1
    14     7    12    1
    15     7    21    1
    16     8     9    1
    17     8    17    1
    18     8    37    1
    19     9    11    1
    20     9    18    1
    21     9    26    1
    22    10    14    1
    23    10    19    1
    24    10    27    1
    25    11    13    1
    26    11    15    1
    27    11    38    1
    28    12    13    1
    29    12    39    1
    30    12    40    1
    31    13    41    1
    32    13    42    1
    33    14    16    1
    34    14    25    2
    35    15    23    1
    36    15    31    1
    37    15    32    1
    38    16    20    1
    39    16    28    1
    40    16    43    1
    41    17    25    1
    42    17    44    1
    43    17    45    1
    44    18    24    1
    45    18    46    1
    46    18    47    1
    47    19    22    1
    48    19    48    1
    49    19    49    1
    50    20    22    1
    51    20    29    1
    52    20    34    1
    53    21    50    1
    54    21    51    1
    55    21    52    1
    56    22    53    1
    57    22    54    1
    58    23    24    1
    59    23    55    1
    60    24    57    1
    61    25    56    1
    62    26    58    1
    63    26    59    1
    64    26    60    1
    65    27    61    1
    66    27    62    1
    67    27    63    1
    68    28    30    1
    69    28    64    1
    70    29    33    1
    71    29    65    1
    72    29    66    1
    73    30    33    1
    74    30    35    1
    75    30    36    1
    76    31    67    1
    77    31    68    1
    78    32    69    1
    79    32    70    1
    80    32    71    1
    81    33    72    1
    82    33    73    1
    83    35    74    1
    84    35    75    1
    85    35    76    1
    86    36    77    1
    87    36    78    1
    88    36    79    1
