@<TRIPOS>MOLECULE
IMPHY003678
 74 78 0 0 0
SMALL
GASTEIGER

@<TRIPOS>ATOM
      1 O           9.4651   -1.8824    0.0000 O.3     1  UNL1       -0.3302
      2 O          11.1972   -1.8824    0.0000 O.3     1  UNL1       -0.4608
      3 O           9.4651   -4.8824    0.0000 O.3     1  UNL1       -0.3864
      4 O           7.7331   -3.8824    0.0000 O.3     1  UNL1       -0.3864
      5 O          11.1972   -3.8824    0.0000 O.3     1  UNL1       -0.3829
      6 O           7.7331   -0.8824    0.0000 O.3     1  UNL1       -0.4589
      7 O           6.0010   -0.8824    0.0000 O.2     1  UNL1       -0.2456
      8 O           2.5369   -0.8824    0.0000 O.3     1  UNL1       -0.5068
      9 N          12.0632    3.6176    0.0000 N.3     1  UNL1       -0.2949
     10 C          11.1972    4.1176    0.0000 C.3     1  UNL1        0.0145
     11 C          11.4064    5.0894    0.0000 C.3     1  UNL1       -0.0359
     12 C          12.8002    4.2846    0.0000 C.3     1  UNL1       -0.0004
     13 C          12.3951    5.1924    0.0000 C.3     1  UNL1       -0.0388
     14 C          10.3312    3.6176    0.0000 C.3     1  UNL1       -0.0157
     15 C          12.0632    2.6176    0.0000 C.3     1  UNL1        0.0248
     16 C          10.3312    2.6176    0.0000 C.2     1  UNL1       -0.0662
     17 C          11.1972    2.1176    0.0000 C.2     1  UNL1       -0.0272
     18 C          11.1972    1.1176    0.0000 C.ar    1  UNL1       -0.0204
     19 C           9.4651    2.1176    0.0000 C.3     1  UNL1       -0.0431
     20 C           9.4651   -3.8824    0.0000 C.3     1  UNL1        0.1152
     21 C           8.5991   -3.3824    0.0000 C.3     1  UNL1        0.1130
     22 C          10.3312   -3.3824    0.0000 C.3     1  UNL1        0.1454
     23 C           8.5991   -2.3824    0.0000 C.3     1  UNL1        0.1250
     24 C          10.3312   -2.3824    0.0000 C.3     1  UNL1        0.2308
     25 C          10.3312    0.6176    0.0000 C.ar    1  UNL1       -0.0508
     26 C          12.0632    0.6176    0.0000 C.ar    1  UNL1       -0.0508
     27 C           7.7331   -1.8824    0.0000 C.3     1  UNL1        0.1215
     28 C          11.1972   -0.8824    0.0000 C.ar    1  UNL1        0.1240
     29 C          10.3312   -0.3824    0.0000 C.ar    1  UNL1       -0.0193
     30 C          12.0632   -0.3824    0.0000 C.ar    1  UNL1       -0.0193
     31 C           6.8671   -0.3824    0.0000 C.2     1  UNL1        0.3320
     32 C           6.8671    0.6176    0.0000 C.2     1  UNL1        0.0231
     33 C           6.0010    1.1176    0.0000 C.2     1  UNL1       -0.0478
     34 C           5.1350    0.6176    0.0000 C.ar    1  UNL1       -0.0246
     35 C           4.2690    1.1176    0.0000 C.ar    1  UNL1       -0.0511
     36 C           5.1350   -0.3824    0.0000 C.ar    1  UNL1       -0.0511
     37 C           3.4030    0.6176    0.0000 C.ar    1  UNL1       -0.0196
     38 C           4.2690   -0.8824    0.0000 C.ar    1  UNL1       -0.0196
     39 C           3.4030   -0.3824    0.0000 C.ar    1  UNL1        0.1169
     40 H          10.5102    4.6181    0.0000 H       1  UNL1        0.0466
     41 H          11.4073    5.7094    0.0000 H       1  UNL1        0.0281
     42 H          10.7899    5.1554    0.0000 H       1  UNL1        0.0281
     43 H          13.1657    3.7838    0.0000 H       1  UNL1        0.0427
     44 H          13.3367    4.5954    0.0000 H       1  UNL1        0.0427
     45 H          12.9847    5.3842    0.0000 H       1  UNL1        0.0278
     46 H          12.2664    5.7989    0.0000 H       1  UNL1        0.0278
     47 H          10.1191    4.2002    0.0000 H       1  UNL1        0.0325
     48 H           9.7206    3.5099    0.0000 H       1  UNL1        0.0325
     49 H          12.2753    2.0350    0.0000 H       1  UNL1        0.0476
     50 H          12.6738    2.7252    0.0000 H       1  UNL1        0.0476
     51 H           9.1551    2.6545    0.0000 H       1  UNL1        0.0275
     52 H           8.9282    1.8076    0.0000 H       1  UNL1        0.0275
     53 H           9.7751    1.5806    0.0000 H       1  UNL1        0.0275
     54 H          10.0021   -4.1924    0.0000 H       1  UNL1        0.0648
     55 H           8.5991   -4.0024    0.0000 H       1  UNL1        0.0647
     56 H          10.8681   -3.0724    0.0000 H       1  UNL1        0.0683
     57 H           8.5991   -1.7624    0.0000 H       1  UNL1        0.0658
     58 H          10.3312   -1.7624    0.0000 H       1  UNL1        0.1084
     59 H           9.7942    0.9276    0.0000 H       1  UNL1        0.0625
     60 H          12.6002    0.9276    0.0000 H       1  UNL1        0.0625
     61 H           7.1225   -1.7748    0.0000 H       1  UNL1        0.0725
     62 H           7.5210   -2.4650    0.0000 H       1  UNL1        0.0725
     63 H           9.7942   -0.6924    0.0000 H       1  UNL1        0.0654
     64 H          12.6002   -0.6924    0.0000 H       1  UNL1        0.0654
     65 H           8.9282   -5.1924    0.0000 H       1  UNL1        0.2100
     66 H           7.1962   -3.5724    0.0000 H       1  UNL1        0.2100
     67 H          11.7341   -3.5724    0.0000 H       1  UNL1        0.2102
     68 H           7.4040    0.9276    0.0000 H       1  UNL1        0.0689
     69 H           6.0010    1.7376    0.0000 H       1  UNL1        0.0626
     70 H           4.2690    1.7376    0.0000 H       1  UNL1        0.0625
     71 H           5.6720   -0.6924    0.0000 H       1  UNL1        0.0625
     72 H           2.8660    0.9276    0.0000 H       1  UNL1        0.0654
     73 H           4.2690   -1.5024    0.0000 H       1  UNL1        0.0654
     74 H           2.0000   -0.5724    0.0000 H       1  UNL1        0.2921
@<TRIPOS>BOND
     1     1    23    1
     2     1    24    1
     3    24     2    1
     4     2    28    1
     5    20     3    1
     6     3    65    1
     7    21     4    1
     8     4    66    1
     9    22     5    1
    10     5    67    1
    11     6    27    1
    12     6    31    1
    13     7    31    2
    14     8    39    1
    15     8    74    1
    16     9    10    1
    17     9    12    1
    18     9    15    1
    19    10    11    1
    20    10    14    1
    21    10    40    1
    22    11    13    1
    23    11    41    1
    24    11    42    1
    25    12    13    1
    26    12    43    1
    27    12    44    1
    28    13    45    1
    29    13    46    1
    30    14    16    1
    31    14    47    1
    32    14    48    1
    33    15    17    1
    34    15    49    1
    35    15    50    1
    36    16    17    2
    37    16    19    1
    38    17    18    1
    39    18    25   ar
    40    18    26   ar
    41    19    51    1
    42    19    52    1
    43    19    53    1
    44    20    21    1
    45    20    22    1
    46    20    54    1
    47    21    23    1
    48    21    55    1
    49    22    24    1
    50    22    56    1
    51    23    27    1
    52    23    57    1
    53    24    58    1
    54    25    29   ar
    55    25    59    1
    56    26    30   ar
    57    26    60    1
    58    27    61    1
    59    27    62    1
    60    28    29   ar
    61    28    30   ar
    62    29    63    1
    63    30    64    1
    64    31    32    1
    65    32    33    2
    66    32    68    1
    67    33    34    1
    68    33    69    1
    69    34    35   ar
    70    34    36   ar
    71    35    37   ar
    72    35    70    1
    73    36    38   ar
    74    36    71    1
    75    37    39   ar
    76    37    72    1
    77    38    39   ar
    78    38    73    1
