@<TRIPOS>MOLECULE
IMPHY017470
 29 28 0 0 0
SMALL
GASTEIGER

@<TRIPOS>ATOM
      1 O           5.4641    0.7500    0.0000 O.3     1  UNL1       -0.3486
      2 O           3.7320    0.7500    0.0000 O.3     1  UNL1       -0.3519
      3 O           8.9282    0.7500    0.0000 O.3     1  UNL1       -0.3949
      4 C           6.3301    0.2500    0.0000 C.3     1  UNL1        0.0609
      5 C           7.1962    0.7500    0.0000 C.3     1  UNL1       -0.0035
      6 C           4.5981    0.2500    0.0000 C.3     1  UNL1        0.1567
      7 C           6.3301   -0.7500    0.0000 C.3     1  UNL1       -0.0385
      8 C           8.0622    0.2500    0.0000 C.3     1  UNL1        0.0465
      9 C           4.5981   -0.7500    0.0000 C.3     1  UNL1       -0.0136
     10 C           2.8660    0.2500    0.0000 C.3     1  UNL1        0.0478
     11 C           2.0000    0.7500    0.0000 C.3     1  UNL1       -0.0415
     12 H           5.7932   -0.0600    0.0000 H       1  UNL1        0.0595
     13 H           7.5947    1.2250    0.0000 H       1  UNL1        0.0312
     14 H           6.7976    1.2250    0.0000 H       1  UNL1        0.0312
     15 H           4.5981    0.8700    0.0000 H       1  UNL1        0.0907
     16 H           5.7101   -0.7500    0.0000 H       1  UNL1        0.0255
     17 H           6.3301   -1.3700    0.0000 H       1  UNL1        0.0255
     18 H           6.9501   -0.7500    0.0000 H       1  UNL1        0.0255
     19 H           7.6636   -0.2249    0.0000 H       1  UNL1        0.0558
     20 H           8.4607   -0.2249    0.0000 H       1  UNL1        0.0558
     21 H           3.9781   -0.7500    0.0000 H       1  UNL1        0.0278
     22 H           4.5981   -1.3700    0.0000 H       1  UNL1        0.0278
     23 H           5.2181   -0.7500    0.0000 H       1  UNL1        0.0278
     24 H           2.4675   -0.2249    0.0000 H       1  UNL1        0.0558
     25 H           3.2646   -0.2249    0.0000 H       1  UNL1        0.0558
     26 H           2.3100    1.2869    0.0000 H       1  UNL1        0.0252
     27 H           1.4631    1.0600    0.0000 H       1  UNL1        0.0252
     28 H           1.6900    0.2131    0.0000 H       1  UNL1        0.0252
     29 H           9.4651    0.4400    0.0000 H       1  UNL1        0.2094
@<TRIPOS>BOND
     1     1     4    1
     2     1     6    1
     3     2     6    1
     4     2    10    1
     5     3     8    1
     6     3    29    1
     7     4     5    1
     8     4     7    1
     9     4    12    1
    10     5     8    1
    11     5    13    1
    12     5    14    1
    13     6     9    1
    14     6    15    1
    15     7    16    1
    16     7    17    1
    17     7    18    1
    18     8    19    1
    19     8    20    1
    20     9    21    1
    21     9    22    1
    22     9    23    1
    23    10    11    1
    24    10    24    1
    25    10    25    1
    26    11    26    1
    27    11    27    1
    28    11    28    1
