@<TRIPOS>MOLECULE
IMPHY016981
 19 20 0 0 0
SMALL
GASTEIGER

@<TRIPOS>ATOM
      1 O           2.0159   -2.1718    0.0000 O.2     1  UNL1       -0.2960
      2 C           4.3089    1.1891    0.0000 C.3     1  UNL1       -0.0365
      3 C           4.0501    0.2232    0.0000 C.3     1  UNL1       -0.0126
      4 C           5.4490    0.2320    0.0000 C.3     1  UNL1       -0.0430
      5 C           3.5723    2.1718    0.0000 C.3     1  UNL1       -0.0430
      6 C           2.2756    0.8780    0.0000 C.3     1  UNL1       -0.0312
      7 C           2.8290   -0.6424    0.0000 C.2     1  UNL1       -0.0090
      8 C           2.0000   -0.0833    0.0000 C.2     1  UNL1       -0.0773
      9 C           2.8639   -1.6418    0.0000 C.2     1  UNL1        0.1462
     10 H           4.7592    1.6153    0.0000 H       1  UNL1        0.0304
     11 H           4.2401   -0.3669    0.0000 H       1  UNL1        0.0350
     12 H           5.6293   -0.3612    0.0000 H       1  UNL1        0.0274
     13 H           5.9663    0.5737    0.0000 H       1  UNL1        0.0274
     14 H           3.8901    2.7041    0.0000 H       1  UNL1        0.0274
     15 H           2.9591    2.2637    0.0000 H       1  UNL1        0.0274
     16 H           2.2706    1.4980    0.0000 H       1  UNL1        0.0310
     17 H           1.6613    0.9618    0.0000 H       1  UNL1        0.0310
     18 H           1.4174   -0.2953    0.0000 H       1  UNL1        0.0576
     19 H           3.4114   -1.9329    0.0000 H       1  UNL1        0.1078
@<TRIPOS>BOND
     1     1     9    2
     2     2     4    1
     3     2     5    1
     4     2     6    1
     5     2    10    1
     6     3     4    1
     7     3     5    1
     8     3     7    1
     9     3    11    1
    10     4    12    1
    11     4    13    1
    12     5    14    1
    13     5    15    1
    14     6     8    1
    15     6    16    1
    16     6    17    1
    17     7     8    2
    18     7     9    1
    19     8    18    1
    20     9    19    1
