@<TRIPOS>MOLECULE
IMPHY010784
 13 12 0 0 0
SMALL
GASTEIGER

@<TRIPOS>ATOM
      1 O           1.1552   -1.9904    0.0000 O.3     1  UNL1       -0.4413
      2 O           2.2966    0.0000    0.0000 O.2     1  UNL1       -0.2449
      3 C           2.2966   -1.3223    0.0000 C.2     1  UNL1        0.3422
      4 C           3.4518   -1.9904    0.0000 C.2     1  UNL1        0.0907
      5 C           4.6071   -1.3223    0.0000 C.2     1  UNL1        0.0569
      6 C           5.9432   -1.3223    0.0000 C.1     1  UNL1       -0.0504
      7 C           7.2655   -1.3223    0.0000 C.1     1  UNL1       -0.0086
      8 C           8.6017   -1.3083    0.0000 C.1     1  UNL1       -0.0006
      9 C           9.9240   -1.3083    0.0000 C.1     1  UNL1       -0.0009
     10 C          11.2602   -1.3083    0.0000 C.1     1  UNL1       -0.0132
     11 C           0.0000   -1.3223    0.0000 C.3     1  UNL1        0.2560
     12 C          12.5963   -1.2944    0.0000 C.1     1  UNL1       -0.0768
     13 C          13.9186   -1.2944    0.0000 C.3     1  UNL1        0.0910
@<TRIPOS>BOND
     1     1     3    1
     2     1    11    1
     3     2     3    2
     4     3     4    1
     5     4     5    2
     6     5     6    1
     7     6     7    3
     8     7     8    1
     9     8     9    3
    10     9    10    1
    11    10    12    3
    12    12    13    1
