@<TRIPOS>MOLECULE
IMPHY014550
 83 87 0 0 0
SMALL
GASTEIGER

@<TRIPOS>ATOM
      1 O          10.1808   -0.7761    0.0000 O.3     1  UNL1       -0.3912
      2 O           2.1236   -2.3043    0.0000 O.3     1  UNL1       -0.3912
      3 O          11.1246    2.8924    0.0000 O.2     1  UNL1       -0.2971
      4 C           6.6507   -0.7520    0.0000 C.3     1  UNL1       -0.0230
      5 C           5.7847   -0.2520    0.0000 C.3     1  UNL1       -0.0230
      6 C           7.5167   -0.2520    0.0000 C.3     1  UNL1       -0.0271
      7 C           7.5167    0.7480    0.0000 C.3     1  UNL1       -0.0252
      8 C           4.8746   -0.7588    0.0000 C.3     1  UNL1       -0.0291
      9 C           4.8666   -1.8004    0.0000 C.3     1  UNL1       -0.0263
     10 C           8.4106    1.2827    0.0000 C.3     1  UNL1       -0.0266
     11 C           5.7847    0.7480    0.0000 C.3     1  UNL1       -0.0463
     12 C           6.6507    1.2480    0.0000 C.3     1  UNL1       -0.0466
     13 C           6.6667   -1.7935    0.0000 C.3     1  UNL1       -0.0463
     14 C           9.3167    0.7688    0.0000 C.3     1  UNL1        0.0065
     15 C           8.4106   -0.7866    0.0000 C.3     1  UNL1       -0.0225
     16 C           5.7687   -2.3212    0.0000 C.3     1  UNL1       -0.0467
     17 C           9.3167   -0.2728    0.0000 C.3     1  UNL1        0.0618
     18 C           3.9478   -0.1947    0.0000 C.3     1  UNL1       -0.0417
     19 C           7.5167   -1.2520    0.0000 C.3     1  UNL1       -0.0588
     20 C           4.9186    0.2480    0.0000 C.3     1  UNL1       -0.0588
     21 C           3.9312   -2.3502    0.0000 C.3     1  UNL1       -0.0207
     22 C           7.5167    1.7480    0.0000 C.3     1  UNL1       -0.0590
     23 C           2.9999   -0.7227    0.0000 C.3     1  UNL1       -0.0086
     24 C           8.3856    2.3674    0.0000 C.3     1  UNL1       -0.0424
     25 C          10.2605    1.3041    0.0000 C.3     1  UNL1        0.0227
     26 C           2.9916   -1.8076    0.0000 C.3     1  UNL1        0.0609
     27 C           4.8589   -2.8004    0.0000 C.3     1  UNL1       -0.0592
     28 C          10.1866    0.2755    0.0000 C.3     1  UNL1       -0.0563
     29 C           9.3167    2.9243    0.0000 C.3     1  UNL1        0.0064
     30 C          10.2605    2.3891    0.0000 C.2     1  UNL1        0.1368
     31 C           2.0000   -0.7111    0.0000 C.3     1  UNL1       -0.0575
     32 C           2.5100    0.1491    0.0000 C.3     1  UNL1       -0.0575
     33 C          11.1246    0.8007    0.0000 C.3     1  UNL1       -0.0551
     34 H           8.2561    0.1673    0.0000 H       1  UNL1        0.0312
     35 H           5.6058   -1.1923    0.0000 H       1  UNL1        0.0312
     36 H           9.1401    1.7190    0.0000 H       1  UNL1        0.0312
     37 H           5.5726    1.3306    0.0000 H       1  UNL1        0.0271
     38 H           5.1741    0.6404    0.0000 H       1  UNL1        0.0271
     39 H           7.0492    1.7230    0.0000 H       1  UNL1        0.0271
     40 H           6.2522    1.7230    0.0000 H       1  UNL1        0.0271
     41 H           6.8848   -2.3739    0.0000 H       1  UNL1        0.0271
     42 H           7.2759   -1.6780    0.0000 H       1  UNL1        0.0271
     43 H           8.0060   -1.2564    0.0000 H       1  UNL1        0.0293
     44 H           8.8043   -1.2657    0.0000 H       1  UNL1        0.0293
     45 H           5.3714   -2.7972    0.0000 H       1  UNL1        0.0271
     46 H           6.1697   -2.7941    0.0000 H       1  UNL1        0.0271
     47 H           9.3131   -0.8928    0.0000 H       1  UNL1        0.0599
     48 H           4.3560    0.2719    0.0000 H       1  UNL1        0.0274
     49 H           3.5579    0.2873    0.0000 H       1  UNL1        0.0274
     50 H           7.2067   -1.7889    0.0000 H       1  UNL1        0.0235
     51 H           8.0536   -1.5620    0.0000 H       1  UNL1        0.0235
     52 H           7.8267   -0.7150    0.0000 H       1  UNL1        0.0235
     53 H           5.2286    0.7850    0.0000 H       1  UNL1        0.0235
     54 H           4.3817    0.5580    0.0000 H       1  UNL1        0.0235
     55 H           4.6086   -0.2889    0.0000 H       1  UNL1        0.0235
     56 H           3.5339   -2.8261    0.0000 H       1  UNL1        0.0296
     57 H           4.3322   -2.8230    0.0000 H       1  UNL1        0.0296
     58 H           8.1367    1.7480    0.0000 H       1  UNL1        0.0235
     59 H           7.5167    2.3680    0.0000 H       1  UNL1        0.0235
     60 H           6.8967    1.7480    0.0000 H       1  UNL1        0.0235
     61 H           8.1631    2.9461    0.0000 H       1  UNL1        0.0272
     62 H           7.7773    2.2472    0.0000 H       1  UNL1        0.0272
     63 H          10.7980    1.6130    0.0000 H       1  UNL1        0.0381
     64 H           2.9904   -2.4276    0.0000 H       1  UNL1        0.0599
     65 H           4.2389   -2.7956    0.0000 H       1  UNL1        0.0235
     66 H           4.8541   -3.4204    0.0000 H       1  UNL1        0.0235
     67 H           5.4789   -2.8052    0.0000 H       1  UNL1        0.0235
     68 H           9.8807   -0.2638    0.0000 H       1  UNL1        0.0236
     69 H          10.7259   -0.0303    0.0000 H       1  UNL1        0.0236
     70 H          10.4924    0.8148    0.0000 H       1  UNL1        0.0236
     71 H           9.7103    3.4033    0.0000 H       1  UNL1        0.0342
     72 H           8.9121    3.3941    0.0000 H       1  UNL1        0.0342
     73 H           2.0072   -0.0912    0.0000 H       1  UNL1        0.0236
     74 H           1.3800   -0.7040    0.0000 H       1  UNL1        0.0236
     75 H           1.9928   -1.3311    0.0000 H       1  UNL1        0.0236
     76 H           3.0505    0.4528    0.0000 H       1  UNL1        0.0236
     77 H           2.2062    0.6895    0.0000 H       1  UNL1        0.0236
     78 H           1.9695   -0.1547    0.0000 H       1  UNL1        0.0236
     79 H          10.1784   -1.3961    0.0000 H       1  UNL1        0.2098
     80 H          10.8125    0.2650    0.0000 H       1  UNL1        0.0237
     81 H          11.6603    0.4887    0.0000 H       1  UNL1        0.0237
     82 H          11.4367    1.3365    0.0000 H       1  UNL1        0.0237
     83 H           2.1212   -2.9243    0.0000 H       1  UNL1        0.2098
@<TRIPOS>BOND
     1    17     1    1
     2     1    79    1
     3    26     2    1
     4     2    83    1
     5     3    30    2
     6     4     5    1
     7     4     6    1
     8     4    13    1
     9     4    19    1
    10     5     8    1
    11     5    11    1
    12     5    20    1
    13     6     7    1
    14     6    15    1
    15     6    34    1
    16     7    10    1
    17     7    12    1
    18     7    22    1
    19     8     9    1
    20     8    18    1
    21     8    35    1
    22     9    16    1
    23     9    21    1
    24     9    27    1
    25    10    14    1
    26    10    24    1
    27    10    36    1
    28    11    12    1
    29    11    37    1
    30    11    38    1
    31    12    39    1
    32    12    40    1
    33    13    16    1
    34    13    41    1
    35    13    42    1
    36    14    17    1
    37    14    25    1
    38    14    28    1
    39    15    17    1
    40    15    43    1
    41    15    44    1
    42    16    45    1
    43    16    46    1
    44    17    47    1
    45    18    23    1
    46    18    48    1
    47    18    49    1
    48    19    50    1
    49    19    51    1
    50    19    52    1
    51    20    53    1
    52    20    54    1
    53    20    55    1
    54    21    26    1
    55    21    56    1
    56    21    57    1
    57    22    58    1
    58    22    59    1
    59    22    60    1
    60    23    26    1
    61    23    31    1
    62    23    32    1
    63    24    29    1
    64    24    61    1
    65    24    62    1
    66    25    30    1
    67    25    33    1
    68    25    63    1
    69    26    64    1
    70    27    65    1
    71    27    66    1
    72    27    67    1
    73    28    68    1
    74    28    69    1
    75    28    70    1
    76    29    30    1
    77    29    71    1
    78    29    72    1
    79    31    73    1
    80    31    74    1
    81    31    75    1
    82    32    76    1
    83    32    77    1
    84    32    78    1
    85    33    80    1
    86    33    81    1
    87    33    82    1
