@<TRIPOS>MOLECULE
IMPHY014347
 41 44 0 0 0
SMALL
GASTEIGER

@<TRIPOS>ATOM
      1 O           7.8147   -2.6529    0.0000 O.3     1  UNL1       -0.3917
      2 O           1.5487    2.9268    0.0000 O.2     1  UNL1       -0.2926
      3 N           7.5885    0.4080    0.0000 N.3     1  UNL1       -0.2986
      4 N           3.4896    0.5492    0.0000 N.pl3   1  UNL1       -0.3315
      5 C           5.5385    0.7145    0.0000 C.3     1  UNL1       -0.0093
      6 C           5.2796    1.6804    0.0000 C.3     1  UNL1       -0.0089
      7 C           6.7595   -0.1512    0.0000 C.3     1  UNL1        0.0170
      8 C           6.0163    2.6630    0.0000 C.3     1  UNL1       -0.0416
      9 C           3.8480    1.4828    0.0000 C.3     1  UNL1        0.0340
     10 C           7.3129    1.3693    0.0000 C.3     1  UNL1        0.0037
     11 C           4.2668   -0.0801    0.0000 C.3     1  UNL1        0.0163
     12 C           6.8161   -1.1912    0.0000 C.3     1  UNL1       -0.0108
     13 C           8.5317   -0.0341    0.0000 C.3     1  UNL1        0.0015
     14 C           7.7488   -1.6551    0.0000 C.3     1  UNL1        0.0578
     15 C           8.6123   -1.0726    0.0000 C.3     1  UNL1       -0.0140
     16 C           3.2050    2.3023    0.0000 C.3     1  UNL1        0.0287
     17 C           2.4635    0.3704    0.0000 C.2     1  UNL1       -0.0044
     18 C           2.1750    2.1473    0.0000 C.2     1  UNL1        0.1590
     19 C           1.8017    1.1748    0.0000 C.2     1  UNL1       -0.0055
     20 H           5.7585   -0.1065    0.0000 H       1  UNL1        0.0331
     21 H           5.0597    2.5015    0.0000 H       1  UNL1        0.0331
     22 H           6.0548   -0.6265    0.0000 H       1  UNL1        0.0466
     23 H           5.6984    3.1954    0.0000 H       1  UNL1        0.0273
     24 H           6.6294    2.7550    0.0000 H       1  UNL1        0.0273
     25 H           4.1526    2.2763    0.0000 H       1  UNL1        0.0507
     26 H           7.3179    1.9893    0.0000 H       1  UNL1        0.0430
     27 H           7.9272    1.4531    0.0000 H       1  UNL1        0.0430
     28 H           4.6513   -0.5665    0.0000 H       1  UNL1        0.0467
     29 H           3.8258   -0.5160    0.0000 H       1  UNL1        0.0467
     30 H           6.6391   -1.7854    0.0000 H       1  UNL1        0.0305
     31 H           6.2004   -1.1185    0.0000 H       1  UNL1        0.0305
     32 H           8.6949    0.5640    0.0000 H       1  UNL1        0.0427
     33 H           9.1489   -0.0926    0.0000 H       1  UNL1        0.0427
     34 H           8.3055   -1.9279    0.0000 H       1  UNL1        0.0594
     35 H           9.2131   -0.9195    0.0000 H       1  UNL1        0.0302
     36 H           8.8660   -1.6384    0.0000 H       1  UNL1        0.0302
     37 H           3.0092    2.8905    0.0000 H       1  UNL1        0.0363
     38 H           3.7511    2.5959    0.0000 H       1  UNL1        0.0363
     39 H           2.2480   -0.2110    0.0000 H       1  UNL1        0.0781
     40 H           1.1897    1.0755    0.0000 H       1  UNL1        0.0665
     41 H           8.3709   -2.9268    0.0000 H       1  UNL1        0.2098
@<TRIPOS>BOND
     1    14     1    1
     2     1    41    1
     3     2    18    2
     4     3     7    1
     5     3    10    1
     6     3    13    1
     7     4     9    1
     8     4    11    1
     9     4    17    1
    10     5     7    1
    11     5     8    1
    12     5    11    1
    13     5    20    1
    14     6     8    1
    15     6     9    1
    16     6    10    1
    17     6    21    1
    18     7    12    1
    19     7    22    1
    20     8    23    1
    21     8    24    1
    22     9    16    1
    23     9    25    1
    24    10    26    1
    25    10    27    1
    26    11    28    1
    27    11    29    1
    28    12    14    1
    29    12    30    1
    30    12    31    1
    31    13    15    1
    32    13    32    1
    33    13    33    1
    34    14    15    1
    35    14    34    1
    36    15    35    1
    37    15    36    1
    38    16    18    1
    39    16    37    1
    40    16    38    1
    41    17    19    2
    42    17    39    1
    43    18    19    1
    44    19    40    1
