@<TRIPOS>MOLECULE
IMPHY013132
 30 31 0 0 0
SMALL
GASTEIGER

@<TRIPOS>ATOM
      1 O           6.3580    0.4480    0.0000 O.2     1  UNL1       -0.4214
      2 O           2.8660    0.4827    0.0000 O.3     1  UNL1       -0.4944
      3 O           8.1282    0.4585    0.0000 O.2     1  UNL1       -0.2452
      4 O           4.5981   -2.5173    0.0000 O.2     1  UNL1       -0.2930
      5 C           5.4641    0.9827    0.0000 C.ar    1  UNL1        0.1497
      6 C           4.5981    0.4827    0.0000 C.ar    1  UNL1        0.0597
      7 C           5.4641    1.9827    0.0000 C.ar    1  UNL1        0.0184
      8 C           3.7320    0.9827    0.0000 C.ar    1  UNL1        0.1308
      9 C           4.5981    2.4827    0.0000 C.ar    1  UNL1       -0.0476
     10 C           3.7320    1.9827    0.0000 C.ar    1  UNL1       -0.0186
     11 C           6.3580    2.5173    0.0000 C.ar    1  UNL1       -0.0443
     12 C           4.5981   -0.5173    0.0000 C.2     1  UNL1       -0.0443
     13 C           7.2641    2.0035    0.0000 C.ar    1  UNL1        0.0236
     14 C           7.2641    0.9619    0.0000 C.ar    1  UNL1        0.3372
     15 C           3.7320   -1.0173    0.0000 C.2     1  UNL1       -0.0187
     16 C           3.7320   -2.0173    0.0000 C.2     1  UNL1        0.1531
     17 C           2.0000    0.9827    0.0000 C.3     1  UNL1        0.0788
     18 C           2.8660   -2.5173    0.0000 C.3     1  UNL1       -0.0020
     19 H           4.5981    3.1027    0.0000 H       1  UNL1        0.0626
     20 H           3.1951    2.2927    0.0000 H       1  UNL1        0.0654
     21 H           6.3509    3.1373    0.0000 H       1  UNL1        0.0627
     22 H           5.1350   -0.8273    0.0000 H       1  UNL1        0.0627
     23 H           7.7998    2.3156    0.0000 H       1  UNL1        0.0689
     24 H           3.1951   -0.7073    0.0000 H       1  UNL1        0.0652
     25 H           2.3100    1.5196    0.0000 H       1  UNL1        0.0660
     26 H           1.4631    1.2927    0.0000 H       1  UNL1        0.0660
     27 H           1.6900    0.4457    0.0000 H       1  UNL1        0.0660
     28 H           2.5560   -1.9804    0.0000 H       1  UNL1        0.0309
     29 H           2.3291   -2.8273    0.0000 H       1  UNL1        0.0309
     30 H           3.1760   -3.0543    0.0000 H       1  UNL1        0.0309
@<TRIPOS>BOND
     1     1     5   ar
     2     1    14   ar
     3     2     8    1
     4     2    17    1
     5     3    14    2
     6     4    16    2
     7     5     6   ar
     8     5     7   ar
     9     6     8   ar
    10     6    12    1
    11     7     9   ar
    12     7    11   ar
    13     8    10   ar
    14     9    10   ar
    15     9    19    1
    16    10    20    1
    17    11    13   ar
    18    11    21    1
    19    12    15    2
    20    12    22    1
    21    13    14   ar
    22    13    23    1
    23    15    16    1
    24    15    24    1
    25    16    18    1
    26    17    25    1
    27    17    26    1
    28    17    27    1
    29    18    28    1
    30    18    29    1
    31    18    30    1
