@<TRIPOS>MOLECULE
IMPHY008165
 39 42 0 0 0
SMALL
GASTEIGER

@<TRIPOS>ATOM
      1 O          11.4043   -1.5547    0.0000 O.2     1  UNL1       -0.4628
      2 O           2.5836    0.0547    0.0000 O.3     1  UNL1       -0.4526
      3 O           2.5836   -1.5547    0.0000 O.3     1  UNL1       -0.4526
      4 O           9.5920    1.2500    0.0000 O.3     1  UNL1       -0.4937
      5 O           7.8600    1.2500    0.0000 O.2     1  UNL1       -0.2915
      6 O           6.1279    1.2500    0.0000 O.2     1  UNL1       -0.2916
      7 C           8.7260   -0.2500    0.0000 C.ar    1  UNL1        0.0602
      8 C          10.4580   -0.2500    0.0000 C.ar    1  UNL1        0.0624
      9 C           9.5920    0.2500    0.0000 C.ar    1  UNL1        0.1413
     10 C           6.9939   -0.2500    0.0000 C.3     1  UNL1        0.0737
     11 C           5.2619   -0.2500    0.0000 C.ar    1  UNL1        0.0215
     12 C          10.4580   -1.2500    0.0000 C.ar    1  UNL1        0.1383
     13 C           7.8600    0.2500    0.0000 C.2     1  UNL1        0.1741
     14 C           6.1279    0.2500    0.0000 C.2     1  UNL1        0.1707
     15 C           8.7260   -1.2500    0.0000 C.ar    1  UNL1       -0.0442
     16 C           3.5298   -0.2500    0.0000 C.ar    1  UNL1        0.1669
     17 C           3.5298   -1.2500    0.0000 C.ar    1  UNL1        0.1663
     18 C           4.3958    0.2500    0.0000 C.ar    1  UNL1       -0.0057
     19 C           9.5920   -1.7500    0.0000 C.ar    1  UNL1       -0.0179
     20 C           5.2619   -1.2500    0.0000 C.ar    1  UNL1       -0.0476
     21 C          11.4043    0.0547    0.0000 C.ar    1  UNL1       -0.0126
     22 C           4.3958   -1.7500    0.0000 C.ar    1  UNL1       -0.0155
     23 C           2.0000   -0.7500    0.0000 C.3     1  UNL1        0.2332
     24 C          11.9879   -0.7500    0.0000 C.ar    1  UNL1        0.0932
     25 C          10.4580    1.7500    0.0000 C.3     1  UNL1        0.0788
     26 H           6.5954   -0.7249    0.0000 H       1  UNL1        0.0426
     27 H           7.3925   -0.7249    0.0000 H       1  UNL1        0.0426
     28 H           8.1890   -1.5600    0.0000 H       1  UNL1        0.0627
     29 H           4.3958    0.8700    0.0000 H       1  UNL1        0.0662
     30 H           9.5920   -2.3700    0.0000 H       1  UNL1        0.0655
     31 H           5.7988   -1.5600    0.0000 H       1  UNL1        0.0626
     32 H          11.5969    0.6441    0.0000 H       1  UNL1        0.0656
     33 H           4.3958   -2.3700    0.0000 H       1  UNL1        0.0655
     34 H           1.5391   -0.3353    0.0000 H       1  UNL1        0.1166
     35 H           1.5391   -1.1647    0.0000 H       1  UNL1        0.1166
     36 H          12.6079   -0.7500    0.0000 H       1  UNL1        0.1030
     37 H          10.7680    1.2131    0.0000 H       1  UNL1        0.0660
     38 H          10.9950    2.0600    0.0000 H       1  UNL1        0.0660
     39 H          10.1480    2.2869    0.0000 H       1  UNL1        0.0660
@<TRIPOS>BOND
     1     1    12   ar
     2     1    24   ar
     3     2    16    1
     4     2    23    1
     5     3    17    1
     6     3    23    1
     7     4     9    1
     8     4    25    1
     9     5    13    2
    10     6    14    2
    11     7     9   ar
    12     7    13    1
    13     7    15   ar
    14     8     9   ar
    15     8    12   ar
    16     8    21   ar
    17    10    13    1
    18    10    14    1
    19    10    26    1
    20    10    27    1
    21    11    14    1
    22    11    18   ar
    23    11    20   ar
    24    12    19   ar
    25    15    19   ar
    26    15    28    1
    27    16    17   ar
    28    16    18   ar
    29    17    22   ar
    30    18    29    1
    31    19    30    1
    32    20    22   ar
    33    20    31    1
    34    21    24   ar
    35    21    32    1
    36    22    33    1
    37    23    34    1
    38    23    35    1
    39    24    36    1
    40    25    37    1
    41    25    38    1
    42    25    39    1
