@<TRIPOS>MOLECULE
IMPHY008641
 73 77 0 0 0
SMALL
GASTEIGER

@<TRIPOS>ATOM
      1 O           7.4149   -1.5675    0.0000 O.3     1  UNL1       -0.4569
      2 O           5.6489   -2.6052    0.0000 O.3     1  UNL1       -0.4574
      3 O           2.0000   -1.5883    0.0000 O.2     1  UNL1       -0.2921
      4 O           9.9229    0.9640    0.0000 O.2     1  UNL1       -0.2920
      5 O           9.6033    4.0266    0.0000 O.2     1  UNL1       -0.4707
      6 O           6.5662   -3.0774    0.0000 O.2     1  UNL1       -0.2512
      7 O           4.1522   -3.4770    0.0000 O.2     1  UNL1       -0.2512
      8 C           6.5271   -0.0360    0.0000 C.3     1  UNL1        0.0340
      9 C           5.6610    0.4640    0.0000 C.3     1  UNL1       -0.0191
     10 C           4.7510   -0.0428    0.0000 C.3     1  UNL1       -0.0028
     11 C           4.7430   -1.0844    0.0000 C.3     1  UNL1        0.0209
     12 C           6.5431   -1.0775    0.0000 C.3     1  UNL1        0.1493
     13 C           7.3931    1.4640    0.0000 C.3     1  UNL1        0.0039
     14 C           7.3931    0.4640    0.0000 C.2     1  UNL1       -0.0495
     15 C           5.6451   -1.6053    0.0000 C.3     1  UNL1        0.1450
     16 C           5.6610    1.4640    0.0000 C.3     1  UNL1       -0.0477
     17 C           6.5271    1.9640    0.0000 C.3     1  UNL1       -0.0426
     18 C           3.8076   -1.6342    0.0000 C.3     1  UNL1        0.0345
     19 C           7.3931   -0.5360    0.0000 C.3     1  UNL1       -0.0520
     20 C           8.3393    1.7687    0.0000 C.3     1  UNL1        0.0585
     21 C           4.7587    0.9571    0.0000 C.3     1  UNL1       -0.0554
     22 C           3.8242    0.5212    0.0000 C.2     1  UNL1       -0.0741
     23 C           8.3393    0.1593    0.0000 C.2     1  UNL1       -0.0181
     24 C           7.3931    2.4640    0.0000 C.3     1  UNL1       -0.0548
     25 C           2.8680   -1.0917    0.0000 C.2     1  UNL1        0.1618
     26 C           8.9229    0.9640    0.0000 C.2     1  UNL1        0.1643
     27 C           2.8763   -0.0067    0.0000 C.2     1  UNL1       -0.0220
     28 C           3.3109   -2.5021    0.0000 C.3     1  UNL1       -0.0524
     29 C           4.3109   -2.4983    0.0000 C.3     1  UNL1       -0.0524
     30 C           8.6500    2.7193    0.0000 C.ar    1  UNL1        0.0017
     31 C           7.4264   -2.5674    0.0000 C.2     1  UNL1        0.3043
     32 C           5.1523   -3.4732    0.0000 C.2     1  UNL1        0.3043
     33 C           8.0636    3.5293    0.0000 C.ar    1  UNL1       -0.0200
     34 C           9.6016    3.0266    0.0000 C.ar    1  UNL1        0.0955
     35 C           8.2982   -3.0573    0.0000 C.3     1  UNL1        0.0332
     36 C           8.6528    4.3373    0.0000 C.ar    1  UNL1        0.0920
     37 C           5.6556   -4.3373    0.0000 C.3     1  UNL1        0.0332
     38 H           6.3972    0.8890    0.0000 H       1  UNL1        0.0319
     39 H           4.7463   -1.9344    0.0000 H       1  UNL1        0.0356
     40 H           6.5491   -1.6975    0.0000 H       1  UNL1        0.0780
     41 H           5.1087   -1.9163    0.0000 H       1  UNL1        0.0775
     42 H           5.4490    2.0466    0.0000 H       1  UNL1        0.0269
     43 H           5.0504    1.3563    0.0000 H       1  UNL1        0.0269
     44 H           6.9256    2.4390    0.0000 H       1  UNL1        0.0274
     45 H           6.1285    2.4390    0.0000 H       1  UNL1        0.0274
     46 H           7.0831   -1.0729    0.0000 H       1  UNL1        0.0239
     47 H           7.9300   -0.8460    0.0000 H       1  UNL1        0.0239
     48 H           7.7031    0.0009    0.0000 H       1  UNL1        0.0239
     49 H           8.9518    1.8649    0.0000 H       1  UNL1        0.0439
     50 H           5.3787    0.9523    0.0000 H       1  UNL1        0.0238
     51 H           4.7635    1.5771    0.0000 H       1  UNL1        0.0238
     52 H           4.1388    0.9619    0.0000 H       1  UNL1        0.0238
     53 H           3.8361    1.1411    0.0000 H       1  UNL1        0.0579
     54 H           8.5319   -0.4301    0.0000 H       1  UNL1        0.0652
     55 H           8.0131    2.4640    0.0000 H       1  UNL1        0.0238
     56 H           7.3931    3.0840    0.0000 H       1  UNL1        0.0238
     57 H           6.7731    2.4640    0.0000 H       1  UNL1        0.0238
     58 H           2.3430    0.3095    0.0000 H       1  UNL1        0.0649
     59 H           3.7752   -2.8103    0.0000 H       1  UNL1        0.0239
     60 H           4.6230   -3.0340    0.0000 H       1  UNL1        0.0239
     61 H           4.8466   -2.1862    0.0000 H       1  UNL1        0.0239
     62 H           2.7728   -2.1942    0.0000 H       1  UNL1        0.0239
     63 H           3.0030   -3.0402    0.0000 H       1  UNL1        0.0239
     64 H           3.8490   -2.8100    0.0000 H       1  UNL1        0.0239
     65 H           7.4436    3.5304    0.0000 H       1  UNL1        0.0652
     66 H          10.1025    2.6613    0.0000 H       1  UNL1        0.1032
     67 H           7.9944   -3.5978    0.0000 H       1  UNL1        0.0342
     68 H           8.8387   -3.3611    0.0000 H       1  UNL1        0.0342
     69 H           8.6020   -2.5169    0.0000 H       1  UNL1        0.0342
     70 H           8.4622    4.9273    0.0000 H       1  UNL1        0.1029
     71 H           5.1199   -4.6494    0.0000 H       1  UNL1        0.0342
     72 H           5.9677   -4.8730    0.0000 H       1  UNL1        0.0342
     73 H           6.1914   -4.0252    0.0000 H       1  UNL1        0.0342
@<TRIPOS>BOND
     1    12     1    1
     2     1    31    1
     3    15     2    1
     4     2    32    1
     5     3    25    2
     6     4    26    2
     7     5    34   ar
     8     5    36   ar
     9     6    31    2
    10     7    32    2
    11     8     9    1
    12     8    12    1
    13     8    14    1
    14     8    19    1
    15     9    10    1
    16     9    16    1
    17     9    38    1
    18    10    11    1
    19    10    21    1
    20    10    22    1
    21    11    15    1
    22    11    18    1
    23    11    39    1
    24    12    15    1
    25    12    40    1
    26    13    14    1
    27    13    17    1
    28    13    20    1
    29    13    24    1
    30    14    23    2
    31    15    41    1
    32    16    17    1
    33    16    42    1
    34    16    43    1
    35    17    44    1
    36    17    45    1
    37    18    25    1
    38    18    28    1
    39    18    29    1
    40    19    46    1
    41    19    47    1
    42    19    48    1
    43    20    26    1
    44    20    30    1
    45    20    49    1
    46    21    50    1
    47    21    51    1
    48    21    52    1
    49    22    27    2
    50    22    53    1
    51    23    26    1
    52    23    54    1
    53    24    55    1
    54    24    56    1
    55    24    57    1
    56    25    27    1
    57    27    58    1
    58    28    62    1
    59    28    63    1
    60    28    64    1
    61    29    59    1
    62    29    60    1
    63    29    61    1
    64    30    33   ar
    65    30    34   ar
    66    31    35    1
    67    32    37    1
    68    33    36   ar
    69    33    65    1
    70    34    66    1
    71    35    67    1
    72    35    68    1
    73    35    69    1
    74    36    70    1
    75    37    71    1
    76    37    72    1
    77    37    73    1
