@<TRIPOS>MOLECULE
IMPHY003068
 45 48 0 0 0
SMALL
GASTEIGER

@<TRIPOS>ATOM
      1 O           3.8372   -4.2874    0.0000 O.3     1  UNL1       -0.4914
      2 O           5.6405   -3.2276    0.0000 O.3     1  UNL1       -0.4914
      3 O           2.8963    3.4408    0.0000 O.3     1  UNL1       -0.4907
      4 O           4.6622    4.4786    0.0000 O.3     1  UNL1       -0.5033
      5 N           2.9180    0.4094    0.0000 N.ar    1  UNL1       -0.1961
      6 C           2.0080   -0.0975    0.0000 C.3     1  UNL1        0.1550
      7 C           2.0000   -1.1391    0.0000 C.3     1  UNL1        0.0330
      8 C           3.7841   -0.0906    0.0000 C.ar    1  UNL1        0.2159
      9 C           2.9021   -1.6599    0.0000 C.ar    1  UNL1       -0.0243
     10 C           3.8001   -1.1321    0.0000 C.ar    1  UNL1        0.0533
     11 C           2.9180    1.4094    0.0000 C.ar    1  UNL1        0.1831
     12 C           4.6501    0.4094    0.0000 C.ar    1  UNL1        0.0183
     13 C           3.7841    1.9094    0.0000 C.ar    1  UNL1        0.0909
     14 C           4.6501    1.4094    0.0000 C.ar    1  UNL1       -0.0022
     15 C           2.8937   -2.7449    0.0000 C.ar    1  UNL1       -0.0121
     16 C           4.7520   -1.6528    0.0000 C.ar    1  UNL1       -0.0026
     17 C           3.8334   -3.2874    0.0000 C.ar    1  UNL1        0.1618
     18 C           4.7688   -2.7376    0.0000 C.ar    1  UNL1        0.1623
     19 C           3.7680    2.9509    0.0000 C.ar    1  UNL1        0.1746
     20 C           5.5601    1.9162    0.0000 C.ar    1  UNL1       -0.0499
     21 C           4.6660    3.4786    0.0000 C.ar    1  UNL1        0.1593
     22 C           5.5681    2.9578    0.0000 C.ar    1  UNL1       -0.0159
     23 C           2.9731   -4.7907    0.0000 C.3     1  UNL1        0.0790
     24 C           5.6521   -4.2275    0.0000 C.3     1  UNL1        0.0790
     25 C           2.8847    4.4408    0.0000 C.3     1  UNL1        0.0790
     26 H           1.8035    0.4878    0.0000 H       1  UNL1        0.1034
     27 H           1.3964   -0.1989    0.0000 H       1  UNL1        0.1034
     28 H           1.3900   -1.0283    0.0000 H       1  UNL1        0.0375
     29 H           1.7864   -1.7211    0.0000 H       1  UNL1        0.0375
     30 H           2.3811    1.7194    0.0000 H       1  UNL1        0.1384
     31 H           5.1870    0.0994    0.0000 H       1  UNL1        0.0690
     32 H           2.3556   -3.0528    0.0000 H       1  UNL1        0.0658
     33 H           5.2829   -1.3325    0.0000 H       1  UNL1        0.0663
     34 H           6.0934    1.6000    0.0000 H       1  UNL1        0.0625
     35 H           6.1062    3.2657    0.0000 H       1  UNL1        0.0655
     36 H           5.1979    4.7907    0.0000 H       1  UNL1        0.2923
     37 H           2.6610   -4.2550    0.0000 H       1  UNL1        0.0660
     38 H           2.4374   -5.1028    0.0000 H       1  UNL1        0.0660
     39 H           3.2852   -5.3264    0.0000 H       1  UNL1        0.0660
     40 H           5.0321   -4.2347    0.0000 H       1  UNL1        0.0660
     41 H           5.6592   -4.8475    0.0000 H       1  UNL1        0.0660
     42 H           6.2720   -4.2204    0.0000 H       1  UNL1        0.0660
     43 H           3.5046    4.4479    0.0000 H       1  UNL1        0.0660
     44 H           2.8775    5.0607    0.0000 H       1  UNL1        0.0660
     45 H           2.2647    4.4336    0.0000 H       1  UNL1        0.0660
@<TRIPOS>UNITY_ATOM_ATTR
5 1
charge 1
@<TRIPOS>BOND
     1     1    17    1
     2     1    23    1
     3     2    18    1
     4     2    24    1
     5     3    19    1
     6     3    25    1
     7     4    21    1
     8     4    36    1
     9     5     6    1
    10     5     8   ar
    11     5    11   ar
    12     6     7    1
    13     6    26    1
    14     6    27    1
    15     7     9    1
    16     7    28    1
    17     7    29    1
    18     8    10    1
    19     8    12   ar
    20     9    10   ar
    21     9    15   ar
    22    10    16   ar
    23    11    13   ar
    24    11    30    1
    25    12    14   ar
    26    12    31    1
    27    13    14   ar
    28    13    19   ar
    29    14    20   ar
    30    15    17   ar
    31    15    32    1
    32    16    18   ar
    33    16    33    1
    34    17    18   ar
    35    19    21   ar
    36    20    22   ar
    37    20    34    1
    38    21    22   ar
    39    22    35    1
    40    23    37    1
    41    23    38    1
    42    23    39    1
    43    24    40    1
    44    24    41    1
    45    24    42    1
    46    25    43    1
    47    25    44    1
    48    25    45    1
