@<TRIPOS>MOLECULE
IMPHY015573
 54 53 0 0 0
SMALL
GASTEIGER

@<TRIPOS>ATOM
      1 O           8.9282    0.7500    0.0000 O.3     1  UNL1       -0.4646
      2 O           9.7942   -0.7500    0.0000 O.2     1  UNL1       -0.2509
      3 C           6.3301    0.2500    0.0000 C.3     1  UNL1       -0.0405
      4 C           5.4641    0.7500    0.0000 C.3     1  UNL1       -0.0469
      5 C           7.1962    0.7500    0.0000 C.3     1  UNL1       -0.0159
      6 C           4.5981    0.2500    0.0000 C.3     1  UNL1       -0.0343
      7 C           6.3301   -0.7500    0.0000 C.3     1  UNL1       -0.0623
      8 C           8.0622    0.2500    0.0000 C.3     1  UNL1        0.0927
      9 C          12.3923    0.7500    0.0000 C.3     1  UNL1       -0.0526
     10 C          13.2583    0.2500    0.0000 C.3     1  UNL1       -0.0531
     11 C          11.5263    0.2500    0.0000 C.3     1  UNL1       -0.0430
     12 C          14.1244    0.7500    0.0000 C.3     1  UNL1       -0.0533
     13 C          10.6603    0.7500    0.0000 C.3     1  UNL1        0.0449
     14 C          14.9904    0.2500    0.0000 C.3     1  UNL1       -0.0559
     15 C           3.7320    0.7500    0.0000 C.2     1  UNL1       -0.0853
     16 C           9.7942    0.2500    0.0000 C.2     1  UNL1        0.3071
     17 C           2.8660    0.2500    0.0000 C.2     1  UNL1       -0.0796
     18 C          15.8564    0.7500    0.0000 C.3     1  UNL1       -0.0653
     19 C           2.0000    0.7500    0.0000 C.3     1  UNL1       -0.0440
     20 C           2.8660   -0.7500    0.0000 C.3     1  UNL1       -0.0440
     21 H           6.8671   -0.0600    0.0000 H       1  UNL1        0.0299
     22 H           5.8626    1.2250    0.0000 H       1  UNL1        0.0271
     23 H           5.0656    1.2250    0.0000 H       1  UNL1        0.0271
     24 H           7.5947    1.2250    0.0000 H       1  UNL1        0.0301
     25 H           6.7976    1.2250    0.0000 H       1  UNL1        0.0301
     26 H           4.1996   -0.2249    0.0000 H       1  UNL1        0.0307
     27 H           4.9966   -0.2249    0.0000 H       1  UNL1        0.0307
     28 H           5.7101   -0.7500    0.0000 H       1  UNL1        0.0232
     29 H           6.3301   -1.3700    0.0000 H       1  UNL1        0.0232
     30 H           6.9501   -0.7500    0.0000 H       1  UNL1        0.0232
     31 H           7.6636   -0.2249    0.0000 H       1  UNL1        0.0697
     32 H           8.4607   -0.2249    0.0000 H       1  UNL1        0.0697
     33 H          12.7908    1.2250    0.0000 H       1  UNL1        0.0265
     34 H          11.9938    1.2250    0.0000 H       1  UNL1        0.0265
     35 H          12.8598   -0.2249    0.0000 H       1  UNL1        0.0265
     36 H          13.6569   -0.2249    0.0000 H       1  UNL1        0.0265
     37 H          11.1278   -0.2249    0.0000 H       1  UNL1        0.0270
     38 H          11.9248   -0.2249    0.0000 H       1  UNL1        0.0270
     39 H          14.5229    1.2250    0.0000 H       1  UNL1        0.0265
     40 H          13.7258    1.2250    0.0000 H       1  UNL1        0.0265
     41 H          11.0588    1.2250    0.0000 H       1  UNL1        0.0377
     42 H          10.2617    1.2250    0.0000 H       1  UNL1        0.0377
     43 H          14.5919   -0.2249    0.0000 H       1  UNL1        0.0263
     44 H          15.3889   -0.2249    0.0000 H       1  UNL1        0.0263
     45 H           3.7320    1.3700    0.0000 H       1  UNL1        0.0571
     46 H          16.1664    0.2131    0.0000 H       1  UNL1        0.0230
     47 H          16.3933    1.0600    0.0000 H       1  UNL1        0.0230
     48 H          15.5464    1.2869    0.0000 H       1  UNL1        0.0230
     49 H           2.3100    1.2869    0.0000 H       1  UNL1        0.0274
     50 H           1.4631    1.0600    0.0000 H       1  UNL1        0.0274
     51 H           1.6900    0.2131    0.0000 H       1  UNL1        0.0274
     52 H           2.2460   -0.7500    0.0000 H       1  UNL1        0.0274
     53 H           2.8660   -1.3700    0.0000 H       1  UNL1        0.0274
     54 H           3.4860   -0.7500    0.0000 H       1  UNL1        0.0274
@<TRIPOS>BOND
     1     1     8    1
     2     1    16    1
     3     2    16    2
     4     3     4    1
     5     3     5    1
     6     3     7    1
     7     3    21    1
     8     4     6    1
     9     4    22    1
    10     4    23    1
    11     5     8    1
    12     5    24    1
    13     5    25    1
    14     6    15    1
    15     6    26    1
    16     6    27    1
    17     7    28    1
    18     7    29    1
    19     7    30    1
    20     8    31    1
    21     8    32    1
    22     9    10    1
    23     9    11    1
    24     9    33    1
    25     9    34    1
    26    10    12    1
    27    10    35    1
    28    10    36    1
    29    11    13    1
    30    11    37    1
    31    11    38    1
    32    12    14    1
    33    12    39    1
    34    12    40    1
    35    13    16    1
    36    13    41    1
    37    13    42    1
    38    14    18    1
    39    14    43    1
    40    14    44    1
    41    15    17    2
    42    15    45    1
    43    17    19    1
    44    17    20    1
    45    18    46    1
    46    18    47    1
    47    18    48    1
    48    19    49    1
    49    19    50    1
    50    19    51    1
    51    20    52    1
    52    20    53    1
    53    20    54    1
