@<TRIPOS>MOLECULE
IMPHY016997
 21 21 0 0 0
SMALL
GASTEIGER

@<TRIPOS>ATOM
      1 O           4.5981    1.4400    0.0000 O.3     1  UNL1       -0.4771
      2 O           2.8660    1.4400    0.0000 O.2     1  UNL1       -0.2451
      3 C           2.8660   -0.5600    0.0000 C.ar    1  UNL1       -0.0365
      4 C           3.7320   -0.0600    0.0000 C.ar    1  UNL1        0.0620
      5 C           4.5981   -1.5600    0.0000 C.ar    1  UNL1       -0.0497
      6 C           4.5981   -0.5600    0.0000 C.ar    1  UNL1       -0.0446
      7 C           2.8660   -1.5600    0.0000 C.ar    1  UNL1       -0.0578
      8 C           3.7320   -2.0600    0.0000 C.ar    1  UNL1       -0.0585
      9 C           2.0000   -0.0600    0.0000 C.3     1  UNL1       -0.0389
     10 C           5.4641   -2.0600    0.0000 C.3     1  UNL1       -0.0397
     11 C           3.7320    0.9400    0.0000 C.2     1  UNL1        0.3371
     12 H           5.1350   -0.2500    0.0000 H       1  UNL1        0.0628
     13 H           2.3291   -1.8700    0.0000 H       1  UNL1        0.0620
     14 H           3.7320   -2.6800    0.0000 H       1  UNL1        0.0620
     15 H           2.3100    0.4769    0.0000 H       1  UNL1        0.0278
     16 H           1.4631    0.2500    0.0000 H       1  UNL1        0.0278
     17 H           1.6900   -0.5969    0.0000 H       1  UNL1        0.0278
     18 H           5.1541   -2.5969    0.0000 H       1  UNL1        0.0278
     19 H           6.0010   -2.3700    0.0000 H       1  UNL1        0.0278
     20 H           5.7741   -1.5231    0.0000 H       1  UNL1        0.0278
     21 H           4.5981    2.0600    0.0000 H       1  UNL1        0.2954
@<TRIPOS>BOND
     1     1    11    1
     2     1    21    1
     3     2    11    2
     4     3     4   ar
     5     3     7   ar
     6     3     9    1
     7     4     6   ar
     8     4    11    1
     9     5     6   ar
    10     5     8   ar
    11     5    10    1
    12     6    12    1
    13     7     8   ar
    14     7    13    1
    15     8    14    1
    16     9    15    1
    17     9    16    1
    18     9    17    1
    19    10    18    1
    20    10    19    1
    21    10    20    1
