@<TRIPOS>MOLECULE
IMPHY005982
 135 135 0 0 0
SMALL
GASTEIGER

@<TRIPOS>ATOM
      1 O           2.0000  -12.0000    0.0000 O.2     1  UNL1       -0.2873
      2 O           5.4641  -14.0000    0.0000 O.2     1  UNL1       -0.2876
      3 C          10.6603    0.0000    0.0000 C.3     1  UNL1       -0.0286
      4 C          12.3923    3.0000    0.0000 C.3     1  UNL1       -0.0286
      5 C           8.9282   -3.0000    0.0000 C.3     1  UNL1       -0.0286
      6 C          10.6603    1.0000    0.0000 C.3     1  UNL1       -0.0308
      7 C           8.9282   -2.0000    0.0000 C.3     1  UNL1       -0.0308
      8 C          12.3923    4.0000    0.0000 C.3     1  UNL1       -0.0308
      9 C          14.1244    6.0000    0.0000 C.3     1  UNL1       -0.0286
     10 C           9.7942   -0.5000    0.0000 C.2     1  UNL1       -0.0762
     11 C          11.5263    2.5000    0.0000 C.2     1  UNL1       -0.0762
     12 C           7.1962   -6.0000    0.0000 C.3     1  UNL1       -0.0286
     13 C           7.1962   -5.0000    0.0000 C.3     1  UNL1       -0.0308
     14 C           8.0622   -3.5000    0.0000 C.2     1  UNL1       -0.0762
     15 C          14.1244    7.0000    0.0000 C.3     1  UNL1       -0.0308
     16 C          13.2583    5.5000    0.0000 C.2     1  UNL1       -0.0762
     17 C          11.5263    1.5000    0.0000 C.2     1  UNL1       -0.0847
     18 C           9.7942   -1.5000    0.0000 C.2     1  UNL1       -0.0847
     19 C           6.3301   -6.5000    0.0000 C.2     1  UNL1       -0.0762
     20 C          13.2583    4.5000    0.0000 C.2     1  UNL1       -0.0847
     21 C          15.8564    9.0000    0.0000 C.3     1  UNL1       -0.0286
     22 C           8.0622   -4.5000    0.0000 C.2     1  UNL1       -0.0847
     23 C          14.9904    8.5000    0.0000 C.2     1  UNL1       -0.0762
     24 C           5.4641   -8.0000    0.0000 C.3     1  UNL1       -0.0308
     25 C           5.4641   -9.0000    0.0000 C.3     1  UNL1       -0.0286
     26 C          14.9904    7.5000    0.0000 C.2     1  UNL1       -0.0847
     27 C          15.8564   10.0000    0.0000 C.3     1  UNL1       -0.0308
     28 C           6.3301   -7.5000    0.0000 C.2     1  UNL1       -0.0847
     29 C           4.5981   -9.5000    0.0000 C.2     1  UNL1       -0.0759
     30 C           8.9282    0.0000    0.0000 C.3     1  UNL1       -0.0438
     31 C          10.6603    3.0000    0.0000 C.3     1  UNL1       -0.0438
     32 C           7.1962   -3.0000    0.0000 C.3     1  UNL1       -0.0438
     33 C          12.3923    6.0000    0.0000 C.3     1  UNL1       -0.0438
     34 C          16.7224   10.5000    0.0000 C.2     1  UNL1       -0.0847
     35 C          16.7224   11.5000    0.0000 C.2     1  UNL1       -0.0762
     36 C          17.5885   12.0000    0.0000 C.3     1  UNL1       -0.0286
     37 C           5.4641   -6.0000    0.0000 C.3     1  UNL1       -0.0438
     38 C           3.7320  -11.0000    0.0000 C.3     1  UNL1       -0.0055
     39 C          14.1244    9.0000    0.0000 C.3     1  UNL1       -0.0438
     40 C           4.5981  -10.5000    0.0000 C.2     1  UNL1       -0.0806
     41 C           3.7320  -12.0000    0.0000 C.2     1  UNL1        0.0069
     42 C          17.5885   13.0000    0.0000 C.3     1  UNL1       -0.0308
     43 C           3.7320   -9.0000    0.0000 C.3     1  UNL1       -0.0438
     44 C          15.8564   12.0000    0.0000 C.3     1  UNL1       -0.0438
     45 C           2.8660  -12.5000    0.0000 C.2     1  UNL1        0.1858
     46 C           2.8660  -13.5000    0.0000 C.2     1  UNL1        0.0030
     47 C           4.5981  -12.5000    0.0000 C.2     1  UNL1       -0.0076
     48 C           3.7320  -14.0000    0.0000 C.2     1  UNL1        0.0027
     49 C          18.4545   13.5000    0.0000 C.2     1  UNL1       -0.0850
     50 C           4.5981  -13.5000    0.0000 C.2     1  UNL1        0.1826
     51 C           2.0000  -14.0000    0.0000 C.3     1  UNL1       -0.0357
     52 C          18.4545   14.5000    0.0000 C.2     1  UNL1       -0.0796
     53 C           3.7320  -15.0000    0.0000 C.3     1  UNL1       -0.0357
     54 C          19.3205   15.0000    0.0000 C.3     1  UNL1       -0.0440
     55 C          17.5885   15.0000    0.0000 C.3     1  UNL1       -0.0440
     56 H          10.8723   -0.5826    0.0000 H       1  UNL1        0.0313
     57 H          11.2708    0.1077    0.0000 H       1  UNL1        0.0313
     58 H          12.6044    2.4174    0.0000 H       1  UNL1        0.0313
     59 H          13.0029    3.1077    0.0000 H       1  UNL1        0.0313
     60 H           9.1403   -3.5826    0.0000 H       1  UNL1        0.0313
     61 H           9.5388   -2.8923    0.0000 H       1  UNL1        0.0313
     62 H          10.4482    1.5826    0.0000 H       1  UNL1        0.0310
     63 H          10.0497    0.8923    0.0000 H       1  UNL1        0.0310
     64 H           8.7162   -1.4174    0.0000 H       1  UNL1        0.0310
     65 H           8.3176   -2.1077    0.0000 H       1  UNL1        0.0310
     66 H          12.1803    4.5826    0.0000 H       1  UNL1        0.0310
     67 H          11.7817    3.8923    0.0000 H       1  UNL1        0.0310
     68 H          14.3364    5.4174    0.0000 H       1  UNL1        0.0313
     69 H          14.7349    6.1077    0.0000 H       1  UNL1        0.0313
     70 H           7.4082   -6.5826    0.0000 H       1  UNL1        0.0313
     71 H           7.8067   -5.8923    0.0000 H       1  UNL1        0.0313
     72 H           6.9841   -4.4174    0.0000 H       1  UNL1        0.0310
     73 H           6.5856   -5.1077    0.0000 H       1  UNL1        0.0310
     74 H          13.9123    7.5826    0.0000 H       1  UNL1        0.0310
     75 H          13.5138    6.8923    0.0000 H       1  UNL1        0.0310
     76 H          12.0632    1.1900    0.0000 H       1  UNL1        0.0572
     77 H          10.3312   -1.8100    0.0000 H       1  UNL1        0.0572
     78 H          13.7953    4.1900    0.0000 H       1  UNL1        0.0572
     79 H          16.0685    8.4174    0.0000 H       1  UNL1        0.0313
     80 H          16.4670    9.1077    0.0000 H       1  UNL1        0.0313
     81 H           8.5991   -4.8100    0.0000 H       1  UNL1        0.0572
     82 H           5.2520   -7.4174    0.0000 H       1  UNL1        0.0310
     83 H           4.8535   -8.1077    0.0000 H       1  UNL1        0.0310
     84 H           5.6762   -9.5826    0.0000 H       1  UNL1        0.0313
     85 H           6.0747   -8.8923    0.0000 H       1  UNL1        0.0313
     86 H          15.5273    7.1900    0.0000 H       1  UNL1        0.0572
     87 H          15.6444   10.5826    0.0000 H       1  UNL1        0.0310
     88 H          15.2458    9.8923    0.0000 H       1  UNL1        0.0310
     89 H           6.8671   -7.8100    0.0000 H       1  UNL1        0.0572
     90 H           9.2382    0.5369    0.0000 H       1  UNL1        0.0274
     91 H           8.3913    0.3100    0.0000 H       1  UNL1        0.0274
     92 H           8.6182   -0.5369    0.0000 H       1  UNL1        0.0274
     93 H          10.9703    3.5369    0.0000 H       1  UNL1        0.0274
     94 H          10.1233    3.3100    0.0000 H       1  UNL1        0.0274
     95 H          10.3503    2.4631    0.0000 H       1  UNL1        0.0274
     96 H           7.5062   -2.4631    0.0000 H       1  UNL1        0.0274
     97 H           6.6592   -2.6900    0.0000 H       1  UNL1        0.0274
     98 H           6.8862   -3.5369    0.0000 H       1  UNL1        0.0274
     99 H          12.7023    6.5369    0.0000 H       1  UNL1        0.0274
    100 H          11.8554    6.3100    0.0000 H       1  UNL1        0.0274
    101 H          12.0823    5.4631    0.0000 H       1  UNL1        0.0274
    102 H          17.2594   10.1900    0.0000 H       1  UNL1        0.0572
    103 H          17.8005   11.4174    0.0000 H       1  UNL1        0.0313
    104 H          18.1990   12.1077    0.0000 H       1  UNL1        0.0313
    105 H           5.7741   -5.4631    0.0000 H       1  UNL1        0.0274
    106 H           4.9272   -5.6900    0.0000 H       1  UNL1        0.0274
    107 H           5.1541   -6.5369    0.0000 H       1  UNL1        0.0274
    108 H           3.5200  -10.4174    0.0000 H       1  UNL1        0.0357
    109 H           3.1215  -11.1077    0.0000 H       1  UNL1        0.0357
    110 H          14.4344    9.5369    0.0000 H       1  UNL1        0.0274
    111 H          13.5874    9.3100    0.0000 H       1  UNL1        0.0274
    112 H          13.8144    8.4631    0.0000 H       1  UNL1        0.0274
    113 H           5.1350  -10.8100    0.0000 H       1  UNL1        0.0575
    114 H          17.3764   13.5826    0.0000 H       1  UNL1        0.0310
    115 H          16.9779   12.8923    0.0000 H       1  UNL1        0.0310
    116 H           4.0420   -8.4631    0.0000 H       1  UNL1        0.0274
    117 H           3.1951   -8.6900    0.0000 H       1  UNL1        0.0274
    118 H           3.4220   -9.5369    0.0000 H       1  UNL1        0.0274
    119 H          16.1664   12.5369    0.0000 H       1  UNL1        0.0274
    120 H          15.3195   12.3100    0.0000 H       1  UNL1        0.0274
    121 H          15.5464   11.4631    0.0000 H       1  UNL1        0.0274
    122 H           5.1350  -12.1900    0.0000 H       1  UNL1        0.0660
    123 H          18.9914   13.1900    0.0000 H       1  UNL1        0.0572
    124 H           1.6900  -13.4631    0.0000 H       1  UNL1        0.0279
    125 H           1.4631  -14.3100    0.0000 H       1  UNL1        0.0279
    126 H           2.3100  -14.5369    0.0000 H       1  UNL1        0.0279
    127 H           3.1120  -15.0000    0.0000 H       1  UNL1        0.0279
    128 H           3.7320  -15.6200    0.0000 H       1  UNL1        0.0279
    129 H           4.3520  -15.0000    0.0000 H       1  UNL1        0.0279
    130 H          19.6305   14.4631    0.0000 H       1  UNL1        0.0274
    131 H          19.8574   15.3100    0.0000 H       1  UNL1        0.0274
    132 H          19.0105   15.5369    0.0000 H       1  UNL1        0.0274
    133 H          17.8985   15.5369    0.0000 H       1  UNL1        0.0274
    134 H          17.0515   15.3100    0.0000 H       1  UNL1        0.0274
    135 H          17.2785   14.4631    0.0000 H       1  UNL1        0.0274
@<TRIPOS>BOND
     1     1    45    2
     2     2    50    2
     3     3     6    1
     4     3    10    1
     5     3    56    1
     6     3    57    1
     7     4     8    1
     8     4    11    1
     9     4    58    1
    10     4    59    1
    11     5     7    1
    12     5    14    1
    13     5    60    1
    14     5    61    1
    15     6    17    1
    16     6    62    1
    17     6    63    1
    18     7    18    1
    19     7    64    1
    20     7    65    1
    21     8    20    1
    22     8    66    1
    23     8    67    1
    24     9    15    1
    25     9    16    1
    26     9    68    1
    27     9    69    1
    28    10    18    2
    29    10    30    1
    30    11    17    2
    31    11    31    1
    32    12    13    1
    33    12    19    1
    34    12    70    1
    35    12    71    1
    36    13    22    1
    37    13    72    1
    38    13    73    1
    39    14    22    2
    40    14    32    1
    41    15    26    1
    42    15    74    1
    43    15    75    1
    44    16    20    2
    45    16    33    1
    46    17    76    1
    47    18    77    1
    48    19    28    2
    49    19    37    1
    50    20    78    1
    51    21    23    1
    52    21    27    1
    53    21    79    1
    54    21    80    1
    55    22    81    1
    56    23    26    2
    57    23    39    1
    58    24    25    1
    59    24    28    1
    60    24    82    1
    61    24    83    1
    62    25    29    1
    63    25    84    1
    64    25    85    1
    65    26    86    1
    66    27    34    1
    67    27    87    1
    68    27    88    1
    69    28    89    1
    70    29    40    2
    71    29    43    1
    72    30    90    1
    73    30    91    1
    74    30    92    1
    75    31    93    1
    76    31    94    1
    77    31    95    1
    78    32    96    1
    79    32    97    1
    80    32    98    1
    81    33    99    1
    82    33   100    1
    83    33   101    1
    84    34    35    2
    85    34   102    1
    86    35    36    1
    87    35    44    1
    88    36    42    1
    89    36   103    1
    90    36   104    1
    91    37   105    1
    92    37   106    1
    93    37   107    1
    94    38    40    1
    95    38    41    1
    96    38   108    1
    97    38   109    1
    98    39   110    1
    99    39   111    1
   100    39   112    1
   101    40   113    1
   102    41    45    1
   103    41    47    2
   104    42    49    1
   105    42   114    1
   106    42   115    1
   107    43   116    1
   108    43   117    1
   109    43   118    1
   110    44   119    1
   111    44   120    1
   112    44   121    1
   113    45    46    1
   114    46    48    2
   115    46    51    1
   116    47    50    1
   117    47   122    1
   118    48    50    1
   119    48    53    1
   120    49    52    2
   121    49   123    1
   122    51   124    1
   123    51   125    1
   124    51   126    1
   125    52    54    1
   126    52    55    1
   127    53   127    1
   128    53   128    1
   129    53   129    1
   130    54   130    1
   131    54   131    1
   132    54   132    1
   133    55   133    1
   134    55   134    1
   135    55   135    1
