@<TRIPOS>MOLECULE
IMPHY000136
 10 9 0 0 0
SMALL
GASTEIGER

@<TRIPOS>ATOM
      1 O           4.5981   -0.2500    0.0000 O.3     1  UNL1       -0.4751
      2 O           2.8660   -1.2500    0.0000 O.2     1  UNL1       -0.2854
      3 O           3.7320    1.2500    0.0000 O.2     1  UNL1       -0.2419
      4 C           2.8660   -0.2500    0.0000 C.2     1  UNL1        0.2360
      5 C           2.0000    0.2500    0.0000 C.3     1  UNL1        0.0052
      6 C           3.7320    0.2500    0.0000 C.2     1  UNL1        0.3723
      7 H           2.3100    0.7869    0.0000 H       1  UNL1        0.0311
      8 H           1.4631    0.5600    0.0000 H       1  UNL1        0.0311
      9 H           1.6900   -0.2869    0.0000 H       1  UNL1        0.0311
     10 H           5.1350    0.0600    0.0000 H       1  UNL1        0.2955
@<TRIPOS>BOND
     1     1     6    1
     2     1    10    1
     3     2     4    2
     4     3     6    2
     5     4     5    1
     6     4     6    1
     7     5     7    1
     8     5     8    1
     9     5     9    1
