@<TRIPOS>MOLECULE
IMPHY014872
 27 28 0 0 0
SMALL
GASTEIGER

@<TRIPOS>ATOM
      1 O           7.7494   -0.6902    0.0000 O.3     1  UNL1       -0.3875
      2 C           3.3608   -0.0329    0.0000 C.3     1  UNL1       -0.0254
      3 C           4.5009    0.9242    0.0000 C.3     1  UNL1       -0.0321
      4 C           4.7597   -0.0417    0.0000 C.3     1  UNL1       -0.0121
      5 C           5.2375    1.9068    0.0000 C.3     1  UNL1       -0.0425
      6 C           6.5341    0.6130    0.0000 C.3     1  UNL1       -0.0196
      7 C           5.9807   -0.9074    0.0000 C.2     1  UNL1       -0.0449
      8 C           6.8098   -0.3482    0.0000 C.3     1  UNL1        0.0766
      9 C           2.4947    0.4671    0.0000 C.3     1  UNL1       -0.0590
     10 C           2.8608   -0.8990    0.0000 C.3     1  UNL1       -0.0590
     11 C           5.9458   -1.9068    0.0000 C.2     1  UNL1       -0.0967
     12 H           4.2809    1.7452    0.0000 H       1  UNL1        0.0307
     13 H           4.9797   -0.8628    0.0000 H       1  UNL1        0.0352
     14 H           4.9197    2.4392    0.0000 H       1  UNL1        0.0274
     15 H           5.8506    1.9988    0.0000 H       1  UNL1        0.0274
     16 H           6.5392    1.2330    0.0000 H       1  UNL1        0.0296
     17 H           7.1484    0.6968    0.0000 H       1  UNL1        0.0296
     18 H           7.2632    0.0746    0.0000 H       1  UNL1        0.0640
     19 H           2.1847   -0.0699    0.0000 H       1  UNL1        0.0235
     20 H           1.9578    0.7771    0.0000 H       1  UNL1        0.0235
     21 H           2.8047    1.0040    0.0000 H       1  UNL1        0.0235
     22 H           3.3977   -1.2090    0.0000 H       1  UNL1        0.0235
     23 H           2.5508   -1.4359    0.0000 H       1  UNL1        0.0235
     24 H           2.3238   -0.5890    0.0000 H       1  UNL1        0.0235
     25 H           6.4716   -2.2354    0.0000 H       1  UNL1        0.0535
     26 H           5.3984   -2.1979    0.0000 H       1  UNL1        0.0535
     27 H           8.2244   -0.2917    0.0000 H       1  UNL1        0.2102
@<TRIPOS>BOND
     1     8     1    1
     2     1    27    1
     3     2     3    1
     4     2     4    1
     5     2     9    1
     6     2    10    1
     7     3     5    1
     8     3     6    1
     9     3    12    1
    10     4     5    1
    11     4     7    1
    12     4    13    1
    13     5    14    1
    14     5    15    1
    15     6     8    1
    16     6    16    1
    17     6    17    1
    18     7     8    1
    19     7    11    2
    20     8    18    1
    21     9    19    1
    22     9    20    1
    23     9    21    1
    24    10    22    1
    25    10    23    1
    26    10    24    1
    27    11    25    1
    28    11    26    1
