@<TRIPOS>MOLECULE
IMPHY012446
 41 46 0 0 0
SMALL
GASTEIGER

@<TRIPOS>ATOM
      1 O           5.0123   -1.7446    0.0000 O.3     1  UNL1       -0.4195
      2 O           6.5837   -3.5585    0.0000 O.3     1  UNL1       -0.4489
      3 O           8.2262   -3.2226    0.0000 O.3     1  UNL1       -0.4525
      4 O           3.6116    0.2531    0.0000 O.2     1  UNL1       -0.2887
      5 O           3.7761   -1.1681    0.0000 O.2     1  UNL1       -0.2471
      6 O           2.0000    2.6754    0.0000 O.3     1  UNL1       -0.4526
      7 O           3.0453    3.9862    0.0000 O.3     1  UNL1       -0.4526
      8 N           6.4132    0.2282    0.0000 N.pl3   1  UNL1       -0.3138
      9 C           5.5123   -0.2057    0.0000 C.3     1  UNL1        0.2241
     10 C           6.3213   -0.7935    0.0000 C.ar    1  UNL1        0.0407
     11 C           4.6113    0.2282    0.0000 C.2     1  UNL1        0.2028
     12 C           6.0123   -1.7446    0.0000 C.ar    1  UNL1        0.1831
     13 C           4.7032   -0.7935    0.0000 C.2     1  UNL1        0.3490
     14 C           4.3888    1.2031    0.0000 C.ar    1  UNL1        0.0314
     15 C           7.3367   -0.5613    0.0000 C.ar    1  UNL1       -0.0483
     16 C           6.6972   -2.5293    0.0000 C.ar    1  UNL1        0.2086
     17 C           5.0123    1.9849    0.0000 C.ar    1  UNL1       -0.0096
     18 C           6.6358    1.2031    0.0000 C.2     1  UNL1       -0.0061
     19 C           7.3441    0.5935    0.0000 C.3     1  UNL1        0.0019
     20 C           7.7177   -2.3206    0.0000 C.ar    1  UNL1        0.1699
     21 C           6.0123    1.9849    0.0000 C.2     1  UNL1       -0.0401
     22 C           8.0396   -1.3300    0.0000 C.ar    1  UNL1       -0.0155
     23 C           3.3565    1.3424    0.0000 C.ar    1  UNL1       -0.0050
     24 C           4.6467    2.9603    0.0000 C.ar    1  UNL1       -0.0083
     25 C           2.9685    2.3091    0.0000 C.ar    1  UNL1        0.1669
     26 C           3.6179    3.1235    0.0000 C.ar    1  UNL1        0.1668
     27 C           7.5268   -3.9862    0.0000 C.3     1  UNL1        0.2334
     28 C           2.0473    3.7098    0.0000 C.3     1  UNL1        0.2332
     29 H           7.5214    0.0306    0.0000 H       1  UNL1        0.0624
     30 H           7.2402    1.3410    0.0000 H       1  UNL1        0.0780
     31 H           7.5706    0.0164    0.0000 H       1  UNL1        0.0428
     32 H           7.9212    0.8200    0.0000 H       1  UNL1        0.0428
     33 H           7.1176    1.1706    0.0000 H       1  UNL1        0.0428
     34 H           6.2813    2.5435    0.0000 H       1  UNL1        0.0636
     35 H           8.6456   -1.1987    0.0000 H       1  UNL1        0.0655
     36 H           2.9756    0.8533    0.0000 H       1  UNL1        0.0662
     37 H           5.0388    3.4405    0.0000 H       1  UNL1        0.0661
     38 H           7.2128   -4.5208    0.0000 H       1  UNL1        0.1166
     39 H           8.0254   -4.3546    0.0000 H       1  UNL1        0.1166
     40 H           1.9456    4.3214    0.0000 H       1  UNL1        0.1166
     41 H           1.4284    3.6729    0.0000 H       1  UNL1        0.1166
@<TRIPOS>BOND
     1     1    12    1
     2     1    13    1
     3     2    16    1
     4     2    27    1
     5     3    20    1
     6     3    27    1
     7     4    11    2
     8     5    13    2
     9     6    25    1
    10     6    28    1
    11     7    26    1
    12     7    28    1
    13     8     9    1
    14     8    18    1
    15     8    19    1
    16     9    10    1
    17     9    11    1
    18     9    13    1
    19    10    12   ar
    20    10    15   ar
    21    11    14    1
    22    12    16   ar
    23    14    17   ar
    24    14    23   ar
    25    15    22   ar
    26    15    29    1
    27    16    20   ar
    28    17    21    1
    29    17    24   ar
    30    18    21    2
    31    18    30    1
    32    19    31    1
    33    19    32    1
    34    19    33    1
    35    20    22   ar
    36    21    34    1
    37    22    35    1
    38    23    25   ar
    39    23    36    1
    40    24    26   ar
    41    24    37    1
    42    25    26   ar
    43    27    38    1
    44    27    39    1
    45    28    40    1
    46    28    41    1
