@<TRIPOS>MOLECULE
IMPHY013439
 95 100 0 0 0
SMALL
GASTEIGER

@<TRIPOS>ATOM
      1 O           6.8779   -3.6913    0.0000 O.3     1  UNL1       -0.3366
      2 O           5.1459   -1.6913    0.0000 O.3     1  UNL1       -0.3313
      3 O           6.0119   -5.1913    0.0000 O.3     1  UNL1       -0.3405
      4 O           6.8779   -1.6913    0.0000 O.3     1  UNL1       -0.4532
      5 O           5.1459   -4.6913    0.0000 O.3     1  UNL1       -0.3863
      6 O           3.4138   -3.6913    0.0000 O.3     1  UNL1       -0.3865
      7 O           8.6100   -4.6913    0.0000 O.3     1  UNL1       -0.3841
      8 O           8.6100   -6.6913    0.0000 O.3     1  UNL1       -0.3864
      9 O           6.8779   -7.6913    0.0000 O.3     1  UNL1       -0.3865
     10 O           5.1396    5.3813    0.0000 O.3     1  UNL1       -0.3313
     11 O           2.5478   -2.1913    0.0000 O.3     1  UNL1       -0.3924
     12 O           4.2799   -6.1913    0.0000 O.3     1  UNL1       -0.3924
     13 O           5.9998    3.8780    0.0000 O.3     1  UNL1       -0.4606
     14 O           2.5357    3.8913    0.0000 O.3     1  UNL1       -0.3864
     15 O           2.5434    5.8913    0.0000 O.3     1  UNL1       -0.3865
     16 O           4.2639    2.8847    0.0000 O.3     1  UNL1       -0.3829
     17 O           7.7440    0.8087    0.0000 O.2     1  UNL1       -0.4507
     18 O           5.1473    7.3813    0.0000 O.3     1  UNL1       -0.3924
     19 O           5.1459   -0.6913    0.0000 O.2     1  UNL1       -0.2830
     20 O           4.2417    0.8056    0.0000 O.3     1  UNL1       -0.5058
     21 O          11.2081   -0.1913    0.0000 O.3     1  UNL1       -0.5033
     22 O          11.2081   -2.1913    0.0000 O.3     1  UNL1       -0.5033
     23 C           6.0119   -3.1913    0.0000 C.3     1  UNL1        0.1519
     24 C           5.1459   -3.6913    0.0000 C.3     1  UNL1        0.1155
     25 C           4.2799   -3.1913    0.0000 C.3     1  UNL1        0.1120
     26 C           6.8779   -4.6913    0.0000 C.3     1  UNL1        0.1886
     27 C           7.7440   -5.1913    0.0000 C.3     1  UNL1        0.1341
     28 C           6.0119   -2.1913    0.0000 C.3     1  UNL1        0.2315
     29 C           4.2799   -2.1913    0.0000 C.3     1  UNL1        0.1140
     30 C           7.7440   -6.1913    0.0000 C.3     1  UNL1        0.1141
     31 C           6.8779   -6.6913    0.0000 C.3     1  UNL1        0.1119
     32 C           6.0119   -6.1913    0.0000 C.3     1  UNL1        0.1130
     33 C           3.4138   -1.6913    0.0000 C.3     1  UNL1        0.0731
     34 C           5.1459   -6.6913    0.0000 C.3     1  UNL1        0.0730
     35 C           3.4037    4.3880    0.0000 C.3     1  UNL1        0.1152
     36 C           3.4075    5.3880    0.0000 C.3     1  UNL1        0.1120
     37 C           4.2678    3.8846    0.0000 C.3     1  UNL1        0.1454
     38 C           4.2755    5.8846    0.0000 C.3     1  UNL1        0.1140
     39 C           5.1357    4.3813    0.0000 C.3     1  UNL1        0.2308
     40 C           6.8779   -0.6913    0.0000 C.ar    1  UNL1        0.2138
     41 C           4.2793    6.8846    0.0000 C.3     1  UNL1        0.0731
     42 C           7.7440   -0.1913    0.0000 C.ar    1  UNL1        0.1810
     43 C           6.0119   -0.1913    0.0000 C.ar    1  UNL1        0.2382
     44 C           6.0119    0.8087    0.0000 C.ar    1  UNL1        0.1092
     45 C           5.9960    2.8780    0.0000 C.ar    1  UNL1        0.1310
     46 C           6.8779    1.3087    0.0000 C.ar    1  UNL1        0.1465
     47 C           6.8940    2.3502    0.0000 C.ar    1  UNL1        0.0235
     48 C           5.1019    1.3156    0.0000 C.ar    1  UNL1        0.1348
     49 C           8.6100   -0.6913    0.0000 C.ar    1  UNL1        0.0247
     50 C           5.0939    2.3572    0.0000 C.ar    1  UNL1        0.0226
     51 C           9.4760   -0.1913    0.0000 C.ar    1  UNL1       -0.0057
     52 C           8.6100   -1.6913    0.0000 C.ar    1  UNL1       -0.0473
     53 C          10.3420   -0.6913    0.0000 C.ar    1  UNL1        0.1589
     54 C           9.4760   -2.1913    0.0000 C.ar    1  UNL1       -0.0159
     55 C          10.3420   -1.6913    0.0000 C.ar    1  UNL1        0.1583
     56 H           6.6637   -2.8150    0.0000 H       1  UNL1        0.0687
     57 H           4.4941   -4.0676    0.0000 H       1  UNL1        0.0648
     58 H           4.2798   -3.9439    0.0000 H       1  UNL1        0.0647
     59 H           6.8780   -5.4439    0.0000 H       1  UNL1        0.0938
     60 H           7.7439   -4.4387    0.0000 H       1  UNL1        0.0671
     61 H           5.3601   -2.5676    0.0000 H       1  UNL1        0.1084
     62 H           4.2798   -1.4387    0.0000 H       1  UNL1        0.0647
     63 H           7.7439   -6.9439    0.0000 H       1  UNL1        0.0648
     64 H           6.8780   -5.9387    0.0000 H       1  UNL1        0.0647
     65 H           5.3601   -5.8150    0.0000 H       1  UNL1        0.0647
     66 H           3.0374   -1.0396    0.0000 H       1  UNL1        0.0584
     67 H           3.7900   -1.0395    0.0000 H       1  UNL1        0.0584
     68 H           5.5222   -7.3431    0.0000 H       1  UNL1        0.0584
     69 H           4.7696   -7.3431    0.0000 H       1  UNL1        0.0584
     70 H           5.1459   -5.4439    0.0000 H       1  UNL1        0.2100
     71 H           4.0569    4.7618    0.0000 H       1  UNL1        0.0648
     72 H           3.4104    6.1406    0.0000 H       1  UNL1        0.0647
     73 H           2.7620   -4.0676    0.0000 H       1  UNL1        0.2100
     74 H           4.9181    3.5058    0.0000 H       1  UNL1        0.0683
     75 H           4.2726    5.1320    0.0000 H       1  UNL1        0.0647
     76 H           9.2618   -4.3150    0.0000 H       1  UNL1        0.2101
     77 H           9.2618   -7.0676    0.0000 H       1  UNL1        0.2100
     78 H           4.4854    4.7601    0.0000 H       1  UNL1        0.1084
     79 H           6.8779   -8.4439    0.0000 H       1  UNL1        0.2100
     80 H           3.5267    6.8874    0.0000 H       1  UNL1        0.0584
     81 H           3.9055    7.5378    0.0000 H       1  UNL1        0.0584
     82 H           1.8960   -2.5676    0.0000 H       1  UNL1        0.2095
     83 H           3.6281   -5.8150    0.0000 H       1  UNL1        0.2095
     84 H           1.8825    3.5175    0.0000 H       1  UNL1        0.2100
     85 H           1.8931    6.2701    0.0000 H       1  UNL1        0.2100
     86 H           4.2610    2.1321    0.0000 H       1  UNL1        0.2102
     87 H           7.5501    2.7189    0.0000 H       1  UNL1        0.0691
     88 H           4.4407    2.7310    0.0000 H       1  UNL1        0.0691
     89 H           5.8005    7.7551    0.0000 H       1  UNL1        0.2095
     90 H           9.4760    0.5613    0.0000 H       1  UNL1        0.0662
     91 H           7.9582   -2.0676    0.0000 H       1  UNL1        0.0626
     92 H           3.5943    0.4218    0.0000 H       1  UNL1        0.2922
     93 H           9.4760   -2.9439    0.0000 H       1  UNL1        0.0655
     94 H          11.8599    0.1850    0.0000 H       1  UNL1        0.2923
     95 H          11.8599   -2.5676    0.0000 H       1  UNL1        0.2923
@<TRIPOS>BOND
     1     1    23    1
     2     1    26    1
     3     2    28    1
     4     2    29    1
     5     3    26    1
     6     3    32    1
     7     4    28    1
     8     4    40    1
     9     5    24    1
    10     5    70    1
    11     6    25    1
    12     6    73    1
    13     7    27    1
    14     7    76    1
    15     8    30    1
    16     8    77    1
    17     9    31    1
    18     9    79    1
    19    10    38    1
    20    10    39    1
    21    11    33    1
    22    11    82    1
    23    12    34    1
    24    12    83    1
    25    13    39    1
    26    13    45    1
    27    14    35    1
    28    14    84    1
    29    15    36    1
    30    15    85    1
    31    16    37    1
    32    16    86    1
    33    17    42   ar
    34    17    46   ar
    35    18    41    1
    36    18    89    1
    37    19    43    2
    38    20    48    1
    39    20    92    1
    40    21    53    1
    41    21    94    1
    42    22    55    1
    43    22    95    1
    44    23    24    1
    45    23    28    1
    46    23    56    1
    47    24    25    1
    48    24    57    1
    49    25    29    1
    50    25    58    1
    51    26    27    1
    52    26    59    1
    53    27    30    1
    54    27    60    1
    55    28    61    1
    56    29    33    1
    57    29    62    1
    58    30    31    1
    59    30    63    1
    60    31    32    1
    61    31    64    1
    62    32    34    1
    63    32    65    1
    64    33    66    1
    65    33    67    1
    66    34    68    1
    67    34    69    1
    68    35    36    1
    69    35    37    1
    70    35    71    1
    71    36    38    1
    72    36    72    1
    73    37    39    1
    74    37    74    1
    75    38    41    1
    76    38    75    1
    77    39    78    1
    78    40    42   ar
    79    40    43   ar
    80    41    80    1
    81    41    81    1
    82    42    49    1
    83    43    44   ar
    84    44    46   ar
    85    44    48   ar
    86    45    47   ar
    87    45    50   ar
    88    46    47   ar
    89    47    87    1
    90    48    50   ar
    91    49    51   ar
    92    49    52   ar
    93    50    88    1
    94    51    53   ar
    95    51    90    1
    96    52    54   ar
    97    52    91    1
    98    53    55   ar
    99    54    55   ar
   100    54    93    1
