@<TRIPOS>MOLECULE
IMPHY007668
 101 107 0 0 0
SMALL
GASTEIGER

@<TRIPOS>ATOM
      1 O          14.8541    1.5438    0.0000 O.3     1  UNL1       -0.3876
      2 O          13.9746   -1.9529    0.0000 O.3     1  UNL1       -0.3911
      3 O           9.4651    2.6169    0.0000 O.3     1  UNL1       -0.3480
      4 O          16.0950   -3.3344    0.0000 O.3     1  UNL1       -0.4571
      5 O           7.7331    2.6169    0.0000 O.3     1  UNL1       -0.3456
      6 O          17.8545   -3.6169    0.0000 O.2     1  UNL1       -0.2456
      7 O           7.7331   -0.3831    0.0000 O.3     1  UNL1       -0.3890
      8 O           6.0010    0.6169    0.0000 O.3     1  UNL1       -0.3403
      9 O           5.1350    2.1169    0.0000 O.3     1  UNL1       -0.3431
     10 O           4.2690   -0.3831    0.0000 O.3     1  UNL1       -0.3841
     11 O           2.5369    0.6169    0.0000 O.3     1  UNL1       -0.3864
     12 O           2.5369    2.6169    0.0000 O.3     1  UNL1       -0.3866
     13 C          14.8503    0.5438    0.0000 C.3     1  UNL1        0.0774
     14 C          13.9862    1.0471    0.0000 C.3     1  UNL1       -0.0081
     15 C          13.1182    0.5504    0.0000 C.3     1  UNL1       -0.0276
     16 C          14.8464   -0.4562    0.0000 C.3     1  UNL1        0.0295
     17 C          12.2102    1.0608    0.0000 C.3     1  UNL1       -0.0258
     18 C          12.2062    2.1024    0.0000 C.3     1  UNL1       -0.0330
     19 C          13.9785   -0.9529    0.0000 C.3     1  UNL1        0.0641
     20 C          13.1144   -0.4496    0.0000 C.3     1  UNL1       -0.0225
     21 C          15.7915   -0.7646    0.0000 C.3     1  UNL1       -0.0057
     22 C          15.7977    0.8448    0.0000 C.3     1  UNL1       -0.0226
     23 C          14.0063    2.0885    0.0000 C.3     1  UNL1       -0.0470
     24 C          13.1103    2.6197    0.0000 C.3     1  UNL1       -0.0493
     25 C          16.3782    0.0379    0.0000 C.3     1  UNL1       -0.0431
     26 C          11.2812    0.5003    0.0000 C.3     1  UNL1       -0.0448
     27 C          14.8426   -1.4562    0.0000 C.3     1  UNL1       -0.0540
     28 C          11.2729    2.6557    0.0000 C.3     1  UNL1       -0.0232
     29 C          12.2140    0.0608    0.0000 C.3     1  UNL1       -0.0590
     30 C          10.3353    1.0319    0.0000 C.3     1  UNL1       -0.0260
     31 C          10.3312    2.1169    0.0000 C.3     1  UNL1        0.0620
     32 C          16.0985   -1.7163    0.0000 C.2     1  UNL1       -0.0221
     33 C          15.5090   -2.5241    0.0000 C.3     1  UNL1        0.1147
     34 C          17.0489   -2.0274    0.0000 C.2     1  UNL1        0.0252
     35 C           8.5991    2.1169    0.0000 C.3     1  UNL1        0.1624
     36 C          17.0467   -3.0274    0.0000 C.2     1  UNL1        0.3323
     37 C           8.5991    1.1169    0.0000 C.3     1  UNL1        0.0270
     38 C           7.7331    0.6169    0.0000 C.3     1  UNL1        0.0884
     39 C           6.8671    2.1169    0.0000 C.3     1  UNL1        0.0875
     40 C           6.8671    1.1169    0.0000 C.3     1  UNL1        0.1136
     41 C           6.0010    2.6169    0.0000 C.3     1  UNL1       -0.0361
     42 C           5.1350    1.1169    0.0000 C.3     1  UNL1        0.1883
     43 C           4.2690    0.6169    0.0000 C.3     1  UNL1        0.1341
     44 C           3.4030    1.1169    0.0000 C.3     1  UNL1        0.1140
     45 C           4.2690    2.6169    0.0000 C.3     1  UNL1        0.0873
     46 C           3.4030    2.1169    0.0000 C.3     1  UNL1        0.1095
     47 C           4.2690    3.6169    0.0000 C.3     1  UNL1       -0.0361
     48 H          14.7272    1.4635    0.0000 H       1  UNL1        0.0331
     49 H          13.8527    0.1226    0.0000 H       1  UNL1        0.0310
     50 H          12.2127    2.9524    0.0000 H       1  UNL1        0.0307
     51 H          13.2407   -1.3751    0.0000 H       1  UNL1        0.0600
     52 H          12.5042   -0.3395    0.0000 H       1  UNL1        0.0293
     53 H          12.9001   -1.0314    0.0000 H       1  UNL1        0.0293
     54 H          16.6306   -0.8997    0.0000 H       1  UNL1        0.0354
     55 H          16.3362    1.1520    0.0000 H       1  UNL1        0.0293
     56 H          15.5488    1.4127    0.0000 H       1  UNL1        0.0293
     57 H          14.6150    1.9707    0.0000 H       1  UNL1        0.0269
     58 H          14.2265    2.6681    0.0000 H       1  UNL1        0.0269
     59 H          13.5130    3.0911    0.0000 H       1  UNL1        0.0268
     60 H          12.7148    3.0972    0.0000 H       1  UNL1        0.0268
     61 H          16.8374   -0.3786    0.0000 H       1  UNL1        0.0272
     62 H          16.8406    0.4508    0.0000 H       1  UNL1        0.0272
     63 H          10.8894    0.0197    0.0000 H       1  UNL1        0.0271
     64 H          11.6876    0.0321    0.0000 H       1  UNL1        0.0271
     65 H          14.2226   -1.4538    0.0000 H       1  UNL1        0.0237
     66 H          14.8402   -2.0762    0.0000 H       1  UNL1        0.0237
     67 H          15.4626   -1.4586    0.0000 H       1  UNL1        0.0237
     68 H          11.6757    3.1271    0.0000 H       1  UNL1        0.0293
     69 H          10.8774    3.1332    0.0000 H       1  UNL1        0.0293
     70 H          11.5941    0.0584    0.0000 H       1  UNL1        0.0235
     71 H          12.2164   -0.5592    0.0000 H       1  UNL1        0.0235
     72 H          12.8340    0.0632    0.0000 H       1  UNL1        0.0235
     73 H           9.7241    1.1356    0.0000 H       1  UNL1        0.0290
     74 H          10.1285    0.4474    0.0000 H       1  UNL1        0.0290
     75 H           9.5959    1.6904    0.0000 H       1  UNL1        0.0597
     76 H          15.3923    1.8517    0.0000 H       1  UNL1        0.2102
     77 H          13.4365   -2.2608    0.0000 H       1  UNL1        0.2098
     78 H          15.0491   -2.1082    0.0000 H       1  UNL1        0.0746
     79 H          15.0473   -2.9380    0.0000 H       1  UNL1        0.0746
     80 H          17.5512   -1.6640    0.0000 H       1  UNL1        0.0689
     81 H           8.5991    2.9669    0.0000 H       1  UNL1        0.0910
     82 H           8.8112    0.5343    0.0000 H       1  UNL1        0.0340
     83 H           9.2097    1.2245    0.0000 H       1  UNL1        0.0340
     84 H           8.4692    0.1919    0.0000 H       1  UNL1        0.0622
     85 H           6.8671    2.9669    0.0000 H       1  UNL1        0.0621
     86 H           6.1309    1.5419    0.0000 H       1  UNL1        0.0649
     87 H           6.3110    3.1538    0.0000 H       1  UNL1        0.0255
     88 H           5.4641    2.9269    0.0000 H       1  UNL1        0.0255
     89 H           5.6910    2.0799    0.0000 H       1  UNL1        0.0255
     90 H           8.2700   -0.6931    0.0000 H       1  UNL1        0.2099
     91 H           5.1350    0.2669    0.0000 H       1  UNL1        0.0938
     92 H           3.5329    0.1919    0.0000 H       1  UNL1        0.0671
     93 H           2.6668    1.5419    0.0000 H       1  UNL1        0.0648
     94 H           5.0051    3.0419    0.0000 H       1  UNL1        0.0621
     95 H           3.4030    2.9669    0.0000 H       1  UNL1        0.0646
     96 H           3.7320   -0.6931    0.0000 H       1  UNL1        0.2101
     97 H           4.8890    3.6169    0.0000 H       1  UNL1        0.0255
     98 H           4.2690    4.2369    0.0000 H       1  UNL1        0.0255
     99 H           3.6490    3.6169    0.0000 H       1  UNL1        0.0255
    100 H           2.0000    0.9269    0.0000 H       1  UNL1        0.2100
    101 H           2.5369    3.2369    0.0000 H       1  UNL1        0.2100
@<TRIPOS>BOND
     1     1    13    1
     2     1    76    1
     3     2    19    1
     4     2    77    1
     5     3    31    1
     6     3    35    1
     7     4    33    1
     8     4    36    1
     9     5    35    1
    10     5    39    1
    11     6    36    2
    12     7    38    1
    13     7    90    1
    14     8    40    1
    15     8    42    1
    16     9    42    1
    17     9    45    1
    18    10    43    1
    19    10    96    1
    20    11    44    1
    21    11   100    1
    22    12    46    1
    23    12   101    1
    24    13    14    1
    25    13    16    1
    26    13    22    1
    27    14    15    1
    28    14    23    1
    29    14    48    1
    30    15    17    1
    31    15    20    1
    32    15    49    1
    33    16    19    1
    34    16    21    1
    35    16    27    1
    36    17    18    1
    37    17    26    1
    38    17    29    1
    39    18    24    1
    40    18    28    1
    41    18    50    1
    42    19    20    1
    43    19    51    1
    44    20    52    1
    45    20    53    1
    46    21    25    1
    47    21    32    1
    48    21    54    1
    49    22    25    1
    50    22    55    1
    51    22    56    1
    52    23    24    1
    53    23    57    1
    54    23    58    1
    55    24    59    1
    56    24    60    1
    57    25    61    1
    58    25    62    1
    59    26    30    1
    60    26    63    1
    61    26    64    1
    62    27    65    1
    63    27    66    1
    64    27    67    1
    65    28    31    1
    66    28    68    1
    67    28    69    1
    68    29    70    1
    69    29    71    1
    70    29    72    1
    71    30    31    1
    72    30    73    1
    73    30    74    1
    74    31    75    1
    75    32    33    1
    76    32    34    2
    77    33    78    1
    78    33    79    1
    79    34    36    1
    80    34    80    1
    81    35    37    1
    82    35    81    1
    83    37    38    1
    84    37    82    1
    85    37    83    1
    86    38    40    1
    87    38    84    1
    88    39    40    1
    89    39    41    1
    90    39    85    1
    91    40    86    1
    92    41    87    1
    93    41    88    1
    94    41    89    1
    95    42    43    1
    96    42    91    1
    97    43    44    1
    98    43    92    1
    99    44    46    1
   100    44    93    1
   101    45    46    1
   102    45    47    1
   103    45    94    1
   104    46    95    1
   105    47    97    1
   106    47    98    1
   107    47    99    1
