@<TRIPOS>MOLECULE
IMPHY013370
 77 81 0 0 0
SMALL
GASTEIGER

@<TRIPOS>ATOM
      1 O          10.3984   -1.8450    0.0000 O.3     1  UNL1       -0.3402
      2 O           8.6663   -1.8450    0.0000 O.3     1  UNL1       -0.3405
      3 O           9.5323    0.6550    0.0000 O.3     1  UNL1       -0.3339
      4 O          12.1304   -0.8450    0.0000 O.3     1  UNL1       -0.3863
      5 O          10.3984    2.1550    0.0000 O.3     1  UNL1       -0.4572
      6 O          10.3984   -3.8450    0.0000 O.3     1  UNL1       -0.3841
      7 O          12.1304    1.1550    0.0000 O.3     1  UNL1       -0.3829
      8 O           8.6663   -4.8450    0.0000 O.3     1  UNL1       -0.3864
      9 O           6.9343   -3.8450    0.0000 O.3     1  UNL1       -0.3865
     10 O           6.0682   -2.3450    0.0000 O.3     1  UNL1       -0.3924
     11 O           6.0682    2.6550    0.0000 O.3     1  UNL1       -0.4828
     12 O          10.3984    4.1550    0.0000 O.3     1  UNL1       -0.5031
     13 O           6.0682   -0.3450    0.0000 O.2     1  UNL1       -0.2917
     14 O           4.3198   -0.3796    0.0000 O.3     1  UNL1       -0.5058
     15 O           2.5381    2.6792    0.0000 O.3     1  UNL1       -0.5065
     16 C          10.3984   -0.8450    0.0000 C.3     1  UNL1        0.1161
     17 C          11.2644   -0.3450    0.0000 C.3     1  UNL1        0.1155
     18 C           9.5323   -0.3450    0.0000 C.3     1  UNL1        0.0887
     19 C           9.5323   -2.3450    0.0000 C.3     1  UNL1        0.1884
     20 C           9.5323   -3.3450    0.0000 C.3     1  UNL1        0.1341
     21 C          11.2644    0.6550    0.0000 C.3     1  UNL1        0.1454
     22 C           8.6663   -3.8450    0.0000 C.3     1  UNL1        0.1141
     23 C           7.8003   -3.3450    0.0000 C.3     1  UNL1        0.1119
     24 C           7.8003   -2.3450    0.0000 C.3     1  UNL1        0.1130
     25 C          10.3984    1.1550    0.0000 C.3     1  UNL1        0.2309
     26 C           8.6663   -0.8450    0.0000 C.3     1  UNL1       -0.0360
     27 C           6.9343   -1.8450    0.0000 C.3     1  UNL1        0.0730
     28 C           9.5323    2.6550    0.0000 C.ar    1  UNL1        0.1658
     29 C           8.6663    2.1550    0.0000 C.ar    1  UNL1       -0.0095
     30 C           7.8003    2.6550    0.0000 C.ar    1  UNL1       -0.0030
     31 C           6.9343    2.1550    0.0000 C.3     1  UNL1        0.1323
     32 C           9.5323    3.6550    0.0000 C.ar    1  UNL1        0.1616
     33 C           8.6663    4.1550    0.0000 C.ar    1  UNL1       -0.0050
     34 C           7.8003    3.6550    0.0000 C.ar    1  UNL1       -0.0485
     35 C           6.9343    1.1550    0.0000 C.3     1  UNL1        0.0520
     36 C           6.0682    0.6550    0.0000 C.2     1  UNL1        0.1740
     37 C           5.2022    1.1550    0.0000 C.ar    1  UNL1        0.1007
     38 C           5.2022    2.1550    0.0000 C.ar    1  UNL1        0.1389
     39 C           8.6663    5.1550    0.0000 C.3     1  UNL1       -0.0361
     40 C           4.3083    0.6203    0.0000 C.ar    1  UNL1        0.1343
     41 C           4.3083    2.6897    0.0000 C.ar    1  UNL1        0.0225
     42 C           3.4022    2.1758    0.0000 C.ar    1  UNL1        0.1238
     43 C           3.4022    1.1342    0.0000 C.ar    1  UNL1        0.0222
     44 H           9.8614   -1.1550    0.0000 H       1  UNL1        0.0650
     45 H          11.2644   -0.9650    0.0000 H       1  UNL1        0.0648
     46 H           8.9954   -0.0350    0.0000 H       1  UNL1        0.0621
     47 H          10.0693   -2.6550    0.0000 H       1  UNL1        0.0938
     48 H           9.5323   -3.9650    0.0000 H       1  UNL1        0.0671
     49 H          11.8013    0.3450    0.0000 H       1  UNL1        0.0683
     50 H           8.1294   -4.1550    0.0000 H       1  UNL1        0.0648
     51 H           7.2634   -3.0350    0.0000 H       1  UNL1        0.0647
     52 H           7.8003   -1.7250    0.0000 H       1  UNL1        0.0647
     53 H           9.8614    1.4650    0.0000 H       1  UNL1        0.1084
     54 H           8.3563   -0.3081    0.0000 H       1  UNL1        0.0255
     55 H           8.1294   -1.1550    0.0000 H       1  UNL1        0.0255
     56 H           8.9763   -1.3819    0.0000 H       1  UNL1        0.0255
     57 H           7.3328   -1.3700    0.0000 H       1  UNL1        0.0584
     58 H           6.5358   -1.3700    0.0000 H       1  UNL1        0.0584
     59 H          12.6674   -0.5350    0.0000 H       1  UNL1        0.2100
     60 H          10.9353   -3.5350    0.0000 H       1  UNL1        0.2101
     61 H          12.1304    1.7750    0.0000 H       1  UNL1        0.2102
     62 H           9.2033   -5.1550    0.0000 H       1  UNL1        0.2100
     63 H           6.9343   -4.4650    0.0000 H       1  UNL1        0.2100
     64 H           5.5313   -2.0350    0.0000 H       1  UNL1        0.2095
     65 H           8.6663    1.5350    0.0000 H       1  UNL1        0.0659
     66 H           6.9343    2.7750    0.0000 H       1  UNL1        0.0789
     67 H           7.1463    0.5724    0.0000 H       1  UNL1        0.0385
     68 H           7.5449    1.2627    0.0000 H       1  UNL1        0.0385
     69 H           7.2634    3.9650    0.0000 H       1  UNL1        0.0625
     70 H           9.2863    5.1550    0.0000 H       1  UNL1        0.0279
     71 H           8.6663    5.7750    0.0000 H       1  UNL1        0.0279
     72 H           8.0463    5.1550    0.0000 H       1  UNL1        0.0279
     73 H          10.3984    4.7750    0.0000 H       1  UNL1        0.2923
     74 H           4.3154    3.3096    0.0000 H       1  UNL1        0.0691
     75 H           2.8665    0.8221    0.0000 H       1  UNL1        0.0691
     76 H           3.7865   -0.6958    0.0000 H       1  UNL1        0.2922
     77 H           2.0000    2.3712    0.0000 H       1  UNL1        0.2921
@<TRIPOS>BOND
     1     1    16    1
     2     1    19    1
     3     2    19    1
     4     2    24    1
     5     3    18    1
     6     3    25    1
     7     4    17    1
     8     4    59    1
     9     5    25    1
    10     5    28    1
    11     6    20    1
    12     6    60    1
    13     7    21    1
    14     7    61    1
    15     8    22    1
    16     8    62    1
    17     9    23    1
    18     9    63    1
    19    10    27    1
    20    10    64    1
    21    11    31    1
    22    11    38    1
    23    12    32    1
    24    12    73    1
    25    13    36    2
    26    14    40    1
    27    14    76    1
    28    15    42    1
    29    15    77    1
    30    16    17    1
    31    16    18    1
    32    16    44    1
    33    17    21    1
    34    17    45    1
    35    18    26    1
    36    18    46    1
    37    19    20    1
    38    19    47    1
    39    20    22    1
    40    20    48    1
    41    21    25    1
    42    21    49    1
    43    22    23    1
    44    22    50    1
    45    23    24    1
    46    23    51    1
    47    24    27    1
    48    24    52    1
    49    25    53    1
    50    26    54    1
    51    26    55    1
    52    26    56    1
    53    27    57    1
    54    27    58    1
    55    28    29   ar
    56    28    32   ar
    57    29    30   ar
    58    29    65    1
    59    30    31    1
    60    30    34   ar
    61    31    35    1
    62    31    66    1
    63    32    33   ar
    64    33    34   ar
    65    33    39    1
    66    34    69    1
    67    35    36    1
    68    35    67    1
    69    35    68    1
    70    36    37    1
    71    37    38   ar
    72    37    40   ar
    73    38    41   ar
    74    39    70    1
    75    39    71    1
    76    39    72    1
    77    40    43   ar
    78    41    42   ar
    79    41    74    1
    80    42    43   ar
    81    43    75    1
