@<TRIPOS>MOLECULE
IMPHY006621
 40 43 0 0 0
SMALL
GASTEIGER

@<TRIPOS>ATOM
      1 O           8.3270   -2.5717    0.0000 O.2     1  UNL1       -0.2926
      2 N           3.7360    0.3167    0.0000 N.3     1  UNL1       -0.2988
      3 N           7.8349    0.4579    0.0000 N.pl3   1  UNL1       -0.3315
      4 C           6.0449    1.5891    0.0000 C.3     1  UNL1       -0.0093
      5 C           5.7861    0.6232    0.0000 C.3     1  UNL1       -0.0089
      6 C           4.0117    1.2780    0.0000 C.3     1  UNL1        0.0147
      7 C           5.3083    2.5717    0.0000 C.3     1  UNL1       -0.0417
      8 C           7.0578   -0.1715    0.0000 C.3     1  UNL1        0.0340
      9 C           4.5650   -0.2425    0.0000 C.3     1  UNL1        0.0037
     10 C           7.4765    1.3914    0.0000 C.3     1  UNL1        0.0163
     11 C           3.2997    2.0383    0.0000 C.3     1  UNL1       -0.0370
     12 C           2.7293    0.0492    0.0000 C.3     1  UNL1       -0.0008
     13 C           2.2871    1.7941    0.0000 C.3     1  UNL1       -0.0505
     14 C           7.2048   -1.2027    0.0000 C.3     1  UNL1        0.0287
     15 C           2.0000    0.7928    0.0000 C.3     1  UNL1       -0.0401
     16 C           8.8130    0.0996    0.0000 C.2     1  UNL1       -0.0044
     17 C           8.1744   -1.5834    0.0000 C.2     1  UNL1        0.1590
     18 C           8.9839   -0.9279    0.0000 C.2     1  UNL1       -0.0055
     19 H           6.2649    2.4101    0.0000 H       1  UNL1        0.0331
     20 H           5.5661   -0.1979    0.0000 H       1  UNL1        0.0331
     21 H           4.2460    2.0950    0.0000 H       1  UNL1        0.0466
     22 H           5.6261    3.1041    0.0000 H       1  UNL1        0.0273
     23 H           4.6951    2.6637    0.0000 H       1  UNL1        0.0273
     24 H           6.3972   -0.7064    0.0000 H       1  UNL1        0.0507
     25 H           4.1592   -0.7112    0.0000 H       1  UNL1        0.0430
     26 H           4.9817   -0.7016    0.0000 H       1  UNL1        0.0430
     27 H           8.0844    1.5138    0.0000 H       1  UNL1        0.0467
     28 H           7.4575    2.0112    0.0000 H       1  UNL1        0.0467
     29 H           3.8181    2.3784    0.0000 H       1  UNL1        0.0280
     30 H           3.0534    2.6073    0.0000 H       1  UNL1        0.0280
     31 H           2.2189   -0.3028    0.0000 H       1  UNL1        0.0427
     32 H           2.9888   -0.5140    0.0000 H       1  UNL1        0.0427
     33 H           2.2470    2.4128    0.0000 H       1  UNL1        0.0266
     34 H           1.6707    1.8605    0.0000 H       1  UNL1        0.0266
     35 H           6.5851   -1.1839    0.0000 H       1  UNL1        0.0363
     36 H           7.0803   -1.8100    0.0000 H       1  UNL1        0.0363
     37 H           1.4420    1.0632    0.0000 H       1  UNL1        0.0278
     38 H           1.6382    0.2894    0.0000 H       1  UNL1        0.0278
     39 H           9.2903    0.4953    0.0000 H       1  UNL1        0.0781
     40 H           9.5635   -1.1479    0.0000 H       1  UNL1        0.0665
@<TRIPOS>BOND
     1     1    17    2
     2     2     6    1
     3     2     9    1
     4     2    12    1
     5     3     8    1
     6     3    10    1
     7     3    16    1
     8     4     6    1
     9     4     7    1
    10     4    10    1
    11     4    19    1
    12     5     7    1
    13     5     8    1
    14     5     9    1
    15     5    20    1
    16     6    11    1
    17     6    21    1
    18     7    22    1
    19     7    23    1
    20     8    14    1
    21     8    24    1
    22     9    25    1
    23     9    26    1
    24    10    27    1
    25    10    28    1
    26    11    13    1
    27    11    29    1
    28    11    30    1
    29    12    15    1
    30    12    31    1
    31    12    32    1
    32    13    15    1
    33    13    33    1
    34    13    34    1
    35    14    17    1
    36    14    35    1
    37    14    36    1
    38    15    37    1
    39    15    38    1
    40    16    18    2
    41    16    39    1
    42    17    18    1
    43    18    40    1
