@<TRIPOS>MOLECULE
IMPHY016467
 50 49 0 0 0
SMALL
GASTEIGER

@<TRIPOS>ATOM
      1 C           5.4641   -0.2500    0.0000 C.3     1  UNL1       -0.0413
      2 C           8.0622    0.2500    0.0000 C.3     1  UNL1       -0.0413
      3 C           6.3301    0.2500    0.0000 C.3     1  UNL1       -0.0500
      4 C           7.1962   -0.2500    0.0000 C.3     1  UNL1       -0.0500
      5 C           4.5981    0.2500    0.0000 C.3     1  UNL1       -0.0502
      6 C           8.9282   -0.2500    0.0000 C.3     1  UNL1       -0.0502
      7 C           5.4641   -1.2500    0.0000 C.3     1  UNL1       -0.0531
      8 C           8.0622    1.2500    0.0000 C.3     1  UNL1       -0.0531
      9 C           3.7320   -0.2500    0.0000 C.3     1  UNL1       -0.0531
     10 C           9.7942    0.2500    0.0000 C.3     1  UNL1       -0.0531
     11 C           4.5981   -1.7500    0.0000 C.3     1  UNL1       -0.0650
     12 C           8.9282    1.7500    0.0000 C.3     1  UNL1       -0.0650
     13 C           2.8660    0.2500    0.0000 C.3     1  UNL1       -0.0559
     14 C          10.6603   -0.2500    0.0000 C.3     1  UNL1       -0.0559
     15 C           2.0000   -0.2500    0.0000 C.3     1  UNL1       -0.0653
     16 C          11.5263    0.2500    0.0000 C.3     1  UNL1       -0.0653
     17 H           5.4641    0.3700    0.0000 H       1  UNL1        0.0301
     18 H           8.0622   -0.3700    0.0000 H       1  UNL1        0.0301
     19 H           6.7287    0.7249    0.0000 H       1  UNL1        0.0268
     20 H           5.9316    0.7249    0.0000 H       1  UNL1        0.0268
     21 H           6.7976   -0.7249    0.0000 H       1  UNL1        0.0268
     22 H           7.5947   -0.7249    0.0000 H       1  UNL1        0.0268
     23 H           4.9966    0.7249    0.0000 H       1  UNL1        0.0268
     24 H           4.1996    0.7249    0.0000 H       1  UNL1        0.0268
     25 H           8.5297   -0.7249    0.0000 H       1  UNL1        0.0268
     26 H           9.3267   -0.7249    0.0000 H       1  UNL1        0.0268
     27 H           5.6762   -1.8326    0.0000 H       1  UNL1        0.0265
     28 H           6.0747   -1.1423    0.0000 H       1  UNL1        0.0265
     29 H           7.8501    1.8326    0.0000 H       1  UNL1        0.0265
     30 H           7.4516    1.1423    0.0000 H       1  UNL1        0.0265
     31 H           3.3335   -0.7249    0.0000 H       1  UNL1        0.0265
     32 H           4.1306   -0.7249    0.0000 H       1  UNL1        0.0265
     33 H          10.1928    0.7249    0.0000 H       1  UNL1        0.0265
     34 H           9.3957    0.7249    0.0000 H       1  UNL1        0.0265
     35 H           4.2881   -1.2131    0.0000 H       1  UNL1        0.0230
     36 H           4.0611   -2.0600    0.0000 H       1  UNL1        0.0230
     37 H           4.9081   -2.2869    0.0000 H       1  UNL1        0.0230
     38 H           9.2382    1.2131    0.0000 H       1  UNL1        0.0230
     39 H           9.4651    2.0600    0.0000 H       1  UNL1        0.0230
     40 H           8.6182    2.2869    0.0000 H       1  UNL1        0.0230
     41 H           3.2646    0.7249    0.0000 H       1  UNL1        0.0263
     42 H           2.4675    0.7249    0.0000 H       1  UNL1        0.0263
     43 H          10.2617   -0.7249    0.0000 H       1  UNL1        0.0263
     44 H          11.0588   -0.7249    0.0000 H       1  UNL1        0.0263
     45 H           1.6900    0.2869    0.0000 H       1  UNL1        0.0230
     46 H           1.4631   -0.5600    0.0000 H       1  UNL1        0.0230
     47 H           2.3100   -0.7869    0.0000 H       1  UNL1        0.0230
     48 H          11.8363   -0.2869    0.0000 H       1  UNL1        0.0230
     49 H          12.0632    0.5600    0.0000 H       1  UNL1        0.0230
     50 H          11.2163    0.7869    0.0000 H       1  UNL1        0.0230
@<TRIPOS>BOND
     1     1     3    1
     2     1     5    1
     3     1     7    1
     4     1    17    1
     5     2     4    1
     6     2     6    1
     7     2     8    1
     8     2    18    1
     9     3     4    1
    10     3    19    1
    11     3    20    1
    12     4    21    1
    13     4    22    1
    14     5     9    1
    15     5    23    1
    16     5    24    1
    17     6    10    1
    18     6    25    1
    19     6    26    1
    20     7    11    1
    21     7    27    1
    22     7    28    1
    23     8    12    1
    24     8    29    1
    25     8    30    1
    26     9    13    1
    27     9    31    1
    28     9    32    1
    29    10    14    1
    30    10    33    1
    31    10    34    1
    32    11    35    1
    33    11    36    1
    34    11    37    1
    35    12    38    1
    36    12    39    1
    37    12    40    1
    38    13    15    1
    39    13    41    1
    40    13    42    1
    41    14    16    1
    42    14    43    1
    43    14    44    1
    44    15    45    1
    45    15    46    1
    46    15    47    1
    47    16    48    1
    48    16    49    1
    49    16    50    1
