@<TRIPOS>MOLECULE
IMPHY015331
 28 27 0 0 0
SMALL
GASTEIGER

@<TRIPOS>ATOM
      1 C           3.7320    0.1900    0.0000 C.3     1  UNL1       -0.0200
      2 C           4.5981    0.6900    0.0000 C.3     1  UNL1       -0.0285
      3 C           2.8660    0.6900    0.0000 C.3     1  UNL1       -0.0493
      4 C           3.7320   -0.8100    0.0000 C.2     1  UNL1       -0.0877
      5 C           5.4641    0.1900    0.0000 C.2     1  UNL1       -0.0874
      6 C           2.0000    0.1900    0.0000 C.3     1  UNL1       -0.0647
      7 C           6.3301    0.6900    0.0000 C.2     1  UNL1       -0.0882
      8 C           7.1962    0.1900    0.0000 C.3     1  UNL1       -0.0376
      9 C           2.8660   -1.3100    0.0000 C.2     1  UNL1       -0.1024
     10 C           8.0622    0.6900    0.0000 C.3     1  UNL1       -0.0618
     11 H           3.7320    0.8100    0.0000 H       1  UNL1        0.0346
     12 H           4.9966    1.1650    0.0000 H       1  UNL1        0.0313
     13 H           4.1996    1.1650    0.0000 H       1  UNL1        0.0313
     14 H           3.2646    1.1650    0.0000 H       1  UNL1        0.0268
     15 H           2.4675    1.1650    0.0000 H       1  UNL1        0.0268
     16 H           4.2690   -1.1200    0.0000 H       1  UNL1        0.0569
     17 H           5.4641   -0.4300    0.0000 H       1  UNL1        0.0569
     18 H           1.6900    0.7269    0.0000 H       1  UNL1        0.0230
     19 H           1.4631   -0.1200    0.0000 H       1  UNL1        0.0230
     20 H           2.3100   -0.3469    0.0000 H       1  UNL1        0.0230
     21 H           6.3301    1.3100    0.0000 H       1  UNL1        0.0569
     22 H           6.7976   -0.2849    0.0000 H       1  UNL1        0.0305
     23 H           7.5947   -0.2849    0.0000 H       1  UNL1        0.0305
     24 H           2.3291   -1.0000    0.0000 H       1  UNL1        0.0532
     25 H           2.8660   -1.9300    0.0000 H       1  UNL1        0.0532
     26 H           8.3722    0.1531    0.0000 H       1  UNL1        0.0233
     27 H           8.5991    1.0000    0.0000 H       1  UNL1        0.0233
     28 H           7.7522    1.2269    0.0000 H       1  UNL1        0.0233
@<TRIPOS>BOND
     1     1     2    1
     2     1     3    1
     3     1     4    1
     4     1    11    1
     5     2     5    1
     6     2    12    1
     7     2    13    1
     8     3     6    1
     9     3    14    1
    10     3    15    1
    11     4     9    2
    12     4    16    1
    13     5     7    2
    14     5    17    1
    15     6    18    1
    16     6    19    1
    17     6    20    1
    18     7     8    1
    19     7    21    1
    20     8    10    1
    21     8    22    1
    22     8    23    1
    23     9    24    1
    24     9    25    1
    25    10    26    1
    26    10    27    1
    27    10    28    1
