@<TRIPOS>MOLECULE
IMPHY006241
 45 46 0 0 0
SMALL
GASTEIGER

@<TRIPOS>ATOM
      1 O           5.5946    1.7093    0.0000 O.3     1  UNL1       -0.2303
      2 O           5.2362    0.7757    0.0000 O.3     1  UNL1       -0.2237
      3 O           4.3794   -2.3696    0.0000 O.3     1  UNL1       -0.3849
      4 O           1.9282   -1.3739    0.0000 O.3     1  UNL1       -0.3862
      5 C           7.2850    0.9410    0.0000 C.3     1  UNL1       -0.0030
      6 C           7.7628    2.8896    0.0000 C.3     1  UNL1       -0.0175
      7 C           7.0262    1.9070    0.0000 C.3     1  UNL1        0.0967
      8 C           9.0595    1.5958    0.0000 C.3     1  UNL1       -0.0145
      9 C           6.0134    0.1464    0.0000 C.3     1  UNL1        0.1227
     10 C           8.5061    0.0754    0.0000 C.3     1  UNL1       -0.0468
     11 C           9.3351    0.6346    0.0000 C.3     1  UNL1       -0.0477
     12 C           9.6751    2.3838    0.0000 C.3     1  UNL1       -0.0600
     13 C           6.4674   -0.7446    0.0000 C.3     1  UNL1       -0.0289
     14 C           5.4687   -0.6923    0.0000 C.2     1  UNL1       -0.0510
     15 C           4.4701   -0.6399    0.0000 C.2     1  UNL1       -0.0543
     16 C           3.9254   -1.4786    0.0000 C.3     1  UNL1        0.1015
     17 C           2.9268   -1.4263    0.0000 C.3     1  UNL1        0.0898
     18 C           2.8745   -2.4249    0.0000 C.3     1  UNL1       -0.0336
     19 C           2.9792   -0.4276    0.0000 C.3     1  UNL1       -0.0336
     20 H           7.5050    0.1200    0.0000 H       1  UNL1        0.0333
     21 H           7.4450    3.4219    0.0000 H       1  UNL1        0.0295
     22 H           8.3760    2.9815    0.0000 H       1  UNL1        0.0295
     23 H           6.8062    2.7280    0.0000 H       1  UNL1        0.0630
     24 H           9.6681    1.4775    0.0000 H       1  UNL1        0.0324
     25 H           8.9119   -0.3933    0.0000 H       1  UNL1        0.0269
     26 H           8.0894   -0.3837    0.0000 H       1  UNL1        0.0269
     27 H           9.9100    0.8668    0.0000 H       1  UNL1        0.0269
     28 H           9.6262    0.0871    0.0000 H       1  UNL1        0.0269
     29 H           9.1866    2.7656    0.0000 H       1  UNL1        0.0233
     30 H          10.0568    2.8724    0.0000 H       1  UNL1        0.0233
     31 H          10.1637    2.0021    0.0000 H       1  UNL1        0.0233
     32 H           7.0198   -0.4631    0.0000 H       1  UNL1        0.0262
     33 H           6.7488   -1.2970    0.0000 H       1  UNL1        0.0262
     34 H           5.9149   -1.0261    0.0000 H       1  UNL1        0.0262
     35 H           5.7502   -1.2447    0.0000 H       1  UNL1        0.0599
     36 H           4.1886   -0.0875    0.0000 H       1  UNL1        0.0596
     37 H           3.5878   -1.9986    0.0000 H       1  UNL1        0.0666
     38 H           2.3600   -0.3952    0.0000 H       1  UNL1        0.0258
     39 H           3.0116    0.1915    0.0000 H       1  UNL1        0.0258
     40 H           3.4936   -2.4573    0.0000 H       1  UNL1        0.0258
     41 H           2.8420   -3.0440    0.0000 H       1  UNL1        0.0258
     42 H           2.2553   -2.3925    0.0000 H       1  UNL1        0.0258
     43 H           3.5983   -0.4601    0.0000 H       1  UNL1        0.0258
     44 H           4.0418   -2.8896    0.0000 H       1  UNL1        0.2103
     45 H           1.5905   -1.8939    0.0000 H       1  UNL1        0.2103
@<TRIPOS>BOND
     1     1     2    1
     2     1     7    1
     3     2     9    1
     4    16     3    1
     5     3    44    1
     6     4    17    1
     7     4    45    1
     8     5     6    1
     9     5     9    1
    10     5    10    1
    11     5    20    1
    12     6     7    1
    13     6    21    1
    14     6    22    1
    15     7     8    1
    16     7    23    1
    17     8    11    1
    18     8    12    1
    19     8    24    1
    20     9    13    1
    21     9    14    1
    22    10    11    1
    23    10    25    1
    24    10    26    1
    25    11    27    1
    26    11    28    1
    27    12    29    1
    28    12    30    1
    29    12    31    1
    30    13    32    1
    31    13    33    1
    32    13    34    1
    33    14    15    2
    34    14    35    1
    35    15    16    1
    36    15    36    1
    37    16    17    1
    38    16    37    1
    39    17    18    1
    40    17    19    1
    41    18    40    1
    42    18    41    1
    43    18    42    1
    44    19    38    1
    45    19    39    1
    46    19    43    1
