@<TRIPOS>MOLECULE
IMPHY007594
 46 48 0 0 0
SMALL
GASTEIGER

@<TRIPOS>ATOM
      1 O           4.6497    2.7772    0.0000 O.3     1  UNL1       -0.4908
      2 O           2.8680    1.7668    0.0000 O.3     1  UNL1       -0.4914
      3 N           3.8010   -2.8019    0.0000 N.3     1  UNL1       -0.3080
      4 C           5.5320    0.2426    0.0000 C.ar    1  UNL1       -0.0103
      5 C           4.6381   -0.2920    0.0000 C.ar    1  UNL1       -0.0347
      6 C           5.5320    1.2426    0.0000 C.ar    1  UNL1        0.0354
      7 C           4.6497   -1.2920    0.0000 C.3     1  UNL1       -0.0142
      8 C           6.3981    1.7426    0.0000 C.ar    1  UNL1       -0.0066
      9 C           3.7895   -1.8020    0.0000 C.3     1  UNL1        0.0023
     10 C           4.6381    1.7773    0.0000 C.ar    1  UNL1        0.1697
     11 C           3.7320    0.2218    0.0000 C.ar    1  UNL1       -0.0125
     12 C           7.2641    1.2426    0.0000 C.ar    1  UNL1       -0.0172
     13 C           6.3981   -0.2574    0.0000 C.ar    1  UNL1       -0.0531
     14 C           3.7320    1.2634    0.0000 C.ar    1  UNL1        0.1624
     15 C           7.2641    0.2426    0.0000 C.ar    1  UNL1       -0.0534
     16 C           6.3820    2.7841    0.0000 C.ar    1  UNL1       -0.0533
     17 C           8.1741    1.7495    0.0000 C.ar    1  UNL1       -0.0540
     18 C           7.2800    3.3119    0.0000 C.ar    1  UNL1       -0.0611
     19 C           8.1821    2.7911    0.0000 C.ar    1  UNL1       -0.0612
     20 C           2.9409   -3.3119    0.0000 C.3     1  UNL1       -0.0130
     21 C           4.6728   -3.2918    0.0000 C.3     1  UNL1       -0.0130
     22 C           3.7895    3.2872    0.0000 C.3     1  UNL1        0.0790
     23 C           2.0000    1.2701    0.0000 C.3     1  UNL1        0.0790
     24 H           4.8684   -1.8721    0.0000 H       1  UNL1        0.0326
     25 H           5.2590   -1.1773    0.0000 H       1  UNL1        0.0326
     26 H           3.5707   -1.2218    0.0000 H       1  UNL1        0.0429
     27 H           3.1802   -1.9167    0.0000 H       1  UNL1        0.0429
     28 H           3.1963   -0.0903    0.0000 H       1  UNL1        0.0658
     29 H           6.3981   -0.8774    0.0000 H       1  UNL1        0.0624
     30 H           7.8010   -0.0674    0.0000 H       1  UNL1        0.0624
     31 H           5.8415    3.0879    0.0000 H       1  UNL1        0.0624
     32 H           8.7074    1.4333    0.0000 H       1  UNL1        0.0624
     33 H           7.2777    3.9319    0.0000 H       1  UNL1        0.0618
     34 H           2.6247   -2.7786    0.0000 H       1  UNL1        0.0391
     35 H           2.4075   -3.6281    0.0000 H       1  UNL1        0.0391
     36 H           4.3690   -3.8323    0.0000 H       1  UNL1        0.0391
     37 H           5.2133   -3.5956    0.0000 H       1  UNL1        0.0391
     38 H           4.9766   -2.7514    0.0000 H       1  UNL1        0.0391
     39 H           3.2570   -3.8452    0.0000 H       1  UNL1        0.0391
     40 H           8.7203    3.0990    0.0000 H       1  UNL1        0.0618
     41 H           4.1057    3.8205    0.0000 H       1  UNL1        0.0660
     42 H           3.2562    3.6034    0.0000 H       1  UNL1        0.0660
     43 H           3.4733    2.7539    0.0000 H       1  UNL1        0.0660
     44 H           1.6921    1.8082    0.0000 H       1  UNL1        0.0660
     45 H           1.4619    0.9622    0.0000 H       1  UNL1        0.0660
     46 H           2.3079    0.7320    0.0000 H       1  UNL1        0.0660
@<TRIPOS>BOND
     1     1    10    1
     2     1    22    1
     3     2    14    1
     4     2    23    1
     5     3     9    1
     6     3    20    1
     7     3    21    1
     8     4     5   ar
     9     4     6   ar
    10     4    13   ar
    11     5     7    1
    12     5    11   ar
    13     6     8   ar
    14     6    10   ar
    15     7     9    1
    16     7    24    1
    17     7    25    1
    18     8    12   ar
    19     8    16   ar
    20     9    26    1
    21     9    27    1
    22    10    14   ar
    23    11    14   ar
    24    11    28    1
    25    12    15   ar
    26    12    17   ar
    27    13    15   ar
    28    13    29    1
    29    15    30    1
    30    16    18   ar
    31    16    31    1
    32    17    19   ar
    33    17    32    1
    34    18    19   ar
    35    18    33    1
    36    19    40    1
    37    20    34    1
    38    20    35    1
    39    20    39    1
    40    21    36    1
    41    21    37    1
    42    21    38    1
    43    22    41    1
    44    22    42    1
    45    22    43    1
    46    23    44    1
    47    23    45    1
    48    23    46    1
