@<TRIPOS>MOLECULE
IMPHY008753
 38 40 0 0 0
SMALL
GASTEIGER

@<TRIPOS>ATOM
      1 O           2.0000    0.0307    0.0000 O.2     1  UNL1       -0.2677
      2 N           7.8646    0.0452    0.0000 N.3     1  UNL1       -0.3011
      3 N           3.7657   -0.0960    0.0000 N.ar    1  UNL1       -0.3118
      4 C           6.0745    1.1764    0.0000 C.3     1  UNL1       -0.0095
      5 C           5.8157    0.2105    0.0000 C.3     1  UNL1        0.0126
      6 C           5.3379    2.1591    0.0000 C.3     1  UNL1       -0.0380
      7 C           7.5062    0.9788    0.0000 C.3     1  UNL1        0.0034
      8 C           7.0874   -0.5841    0.0000 C.3     1  UNL1        0.0071
      9 C           4.0413    0.8653    0.0000 C.3     1  UNL1        0.0304
     10 C           4.5947   -0.6551    0.0000 C.ar    1  UNL1        0.0263
     11 C           8.8305   -0.2136    0.0000 C.3     1  UNL1        0.0023
     12 C           4.5381   -1.6952    0.0000 C.ar    1  UNL1       -0.0418
     13 C           2.8225   -0.5381    0.0000 C.ar    1  UNL1        0.2515
     14 C           9.5376    0.4935    0.0000 C.3     1  UNL1       -0.0222
     15 C           3.6054   -2.1591    0.0000 C.ar    1  UNL1       -0.0550
     16 C           2.7418   -1.5766    0.0000 C.ar    1  UNL1        0.0030
     17 C          10.5035    0.2347    0.0000 C.2     1  UNL1       -0.0899
     18 C          11.2106    0.9418    0.0000 C.2     1  UNL1       -0.1026
     19 H           6.2945    1.9975    0.0000 H       1  UNL1        0.0331
     20 H           5.5957   -0.6105    0.0000 H       1  UNL1        0.0376
     21 H           5.6557    2.6914    0.0000 H       1  UNL1        0.0276
     22 H           4.7248    2.2510    0.0000 H       1  UNL1        0.0276
     23 H           8.1140    1.1011    0.0000 H       1  UNL1        0.0430
     24 H           7.4871    1.5985    0.0000 H       1  UNL1        0.0430
     25 H           6.7028   -1.0705    0.0000 H       1  UNL1        0.0433
     26 H           7.5284   -1.0200    0.0000 H       1  UNL1        0.0433
     27 H           4.0362    1.4853    0.0000 H       1  UNL1        0.0496
     28 H           3.4270    0.9491    0.0000 H       1  UNL1        0.0496
     29 H           8.5684   -0.7755    0.0000 H       1  UNL1        0.0429
     30 H           9.3384   -0.5692    0.0000 H       1  UNL1        0.0429
     31 H           5.0560   -2.0360    0.0000 H       1  UNL1        0.0635
     32 H           9.7996    1.0554    0.0000 H       1  UNL1        0.0320
     33 H           9.0297    0.8491    0.0000 H       1  UNL1        0.0320
     34 H           3.5645   -2.7777    0.0000 H       1  UNL1        0.0620
     35 H           2.1836   -1.8462    0.0000 H       1  UNL1        0.0672
     36 H          10.6640   -0.3642    0.0000 H       1  UNL1        0.0567
     37 H          11.8095    0.7813    0.0000 H       1  UNL1        0.0532
     38 H          11.0501    1.5406    0.0000 H       1  UNL1        0.0532
@<TRIPOS>BOND
     1     1    13    2
     2     2     7    1
     3     2     8    1
     4     2    11    1
     5     3     9    1
     6     3    10   ar
     7     3    13   ar
     8     4     6    1
     9     4     7    1
    10     4     9    1
    11     4    19    1
    12     5     6    1
    13     5     8    1
    14     5    10    1
    15     5    20    1
    16     6    21    1
    17     6    22    1
    18     7    23    1
    19     7    24    1
    20     8    25    1
    21     8    26    1
    22     9    27    1
    23     9    28    1
    24    10    12   ar
    25    11    14    1
    26    11    29    1
    27    11    30    1
    28    12    15   ar
    29    12    31    1
    30    13    16   ar
    31    14    17    1
    32    14    32    1
    33    14    33    1
    34    15    16   ar
    35    15    34    1
    36    16    35    1
    37    17    18    2
    38    17    36    1
    39    18    37    1
    40    18    38    1
