@<TRIPOS>MOLECULE
IMPHY003105
 237 249 0 0 0
SMALL
GASTEIGER

@<TRIPOS>ATOM
      1 O          16.0844    9.0909    0.0000 O.3     1  UNL1       -0.3450
      2 O          12.9585    7.0370    0.0000 O.2     1  UNL1       -0.2968
      3 O          14.5553   10.3229    0.0000 O.3     1  UNL1       -0.3642
      4 O          14.6613    0.8469    0.0000 O.3     1  UNL1       -0.3454
      5 O          12.9292    0.8469    0.0000 O.3     1  UNL1       -0.3405
      6 O          18.7189   12.1903    0.0000 O.3     1  UNL1       -0.3484
      7 O          14.6613   -1.1531    0.0000 O.3     1  UNL1       -0.3841
      8 O          12.9292   -2.1532    0.0000 O.3     1  UNL1       -0.3864
      9 O          11.1972   -1.1531    0.0000 O.3     1  UNL1       -0.3401
     10 O          11.1972    1.8468    0.0000 O.3     1  UNL1       -0.3924
     11 O          20.2215   11.3287    0.0000 O.3     1  UNL1       -0.3405
     12 O          12.0632   -2.6532    0.0000 O.3     1  UNL1       -0.3405
     13 O          19.7137   13.9253    0.0000 O.3     1  UNL1       -0.3841
     14 O          21.7137   13.9313    0.0000 O.3     1  UNL1       -0.3864
     15 O           9.4651   -2.1532    0.0000 O.3     1  UNL1       -0.3841
     16 O          22.7189   12.2022    0.0000 O.3     1  UNL1       -0.3865
     17 O           9.4651   -4.1532    0.0000 O.3     1  UNL1       -0.3864
     18 O          11.1972   -5.1532    0.0000 O.3     1  UNL1       -0.3401
     19 O          22.7241   10.4702    0.0000 O.3     1  UNL1       -0.3924
     20 O          13.7953   -3.6532    0.0000 O.3     1  UNL1       -0.3924
     21 O           9.4651   -5.1532    0.0000 O.3     1  UNL1       -0.3405
     22 O          11.1972   -7.1532    0.0000 O.3     1  UNL1       -0.3378
     23 O           9.4651   -8.1532    0.0000 O.3     1  UNL1       -0.3400
     24 O           7.7331   -7.1532    0.0000 O.3     1  UNL1       -0.3865
     25 O          12.0632   -5.6532    0.0000 O.3     1  UNL1       -0.3461
     26 O           7.7331   -4.1532    0.0000 O.3     1  UNL1       -0.3924
     27 O           7.7331   -8.1532    0.0000 O.3     1  UNL1       -0.3430
     28 O          12.9292   -8.1532    0.0000 O.3     1  UNL1       -0.3841
     29 O           9.4651  -10.1531    0.0000 O.3     1  UNL1       -0.3378
     30 O          14.6613   -7.1532    0.0000 O.3     1  UNL1       -0.3864
     31 O           7.7331  -11.1531    0.0000 O.3     1  UNL1       -0.3864
     32 O           6.0010  -10.1531    0.0000 O.3     1  UNL1       -0.3402
     33 O          14.6613   -5.1532    0.0000 O.3     1  UNL1       -0.3869
     34 O           8.5991  -11.6531    0.0000 O.3     1  UNL1       -0.3431
     35 O           5.1350   -8.6532    0.0000 O.3     1  UNL1       -0.3431
     36 O          11.1972  -11.1531    0.0000 O.3     1  UNL1       -0.3841
     37 O          11.1972  -13.1531    0.0000 O.3     1  UNL1       -0.3864
     38 O           4.2690  -11.1531    0.0000 O.3     1  UNL1       -0.3841
     39 O           9.4651  -14.1531    0.0000 O.3     1  UNL1       -0.3866
     40 O           2.5369  -10.1531    0.0000 O.3     1  UNL1       -0.3864
     41 O           2.5369   -8.1532    0.0000 O.3     1  UNL1       -0.3866
     42 C          15.5585    6.5471    0.0000 C.3     1  UNL1       -0.0231
     43 C          14.6906    7.0437    0.0000 C.3     1  UNL1        0.0349
     44 C          15.5624    5.5471    0.0000 C.3     1  UNL1       -0.0335
     45 C          14.8960    8.0163    0.0000 C.3     1  UNL1        0.0052
     46 C          14.6983    5.0437    0.0000 C.3     1  UNL1       -0.0256
     47 C          14.6862    4.0022    0.0000 C.3     1  UNL1       -0.0256
     48 C          15.8843    8.1232    0.0000 C.3     1  UNL1        0.0664
     49 C          16.2929    7.2170    0.0000 C.3     1  UNL1       -0.0222
     50 C          15.5863    3.4779    0.0000 C.3     1  UNL1       -0.0330
     51 C          14.4937    8.9189    0.0000 C.3     1  UNL1        0.0162
     52 C          13.8303    5.5404    0.0000 C.3     1  UNL1        0.0100
     53 C          16.4743    5.0437    0.0000 C.3     1  UNL1       -0.0494
     54 C          13.8265    6.5404    0.0000 C.2     1  UNL1        0.1401
     55 C          16.4863    4.0022    0.0000 C.3     1  UNL1       -0.0494
     56 C          15.2267    9.5817    0.0000 C.3     1  UNL1        0.1704
     57 C          13.7363    3.4779    0.0000 C.3     1  UNL1       -0.0448
     58 C          13.8226    7.5404    0.0000 C.3     1  UNL1       -0.0522
     59 C          15.5988    2.3930    0.0000 C.3     1  UNL1       -0.0232
     60 C          13.8221    4.5055    0.0000 C.3     1  UNL1       -0.0590
     61 C          13.7238    2.3930    0.0000 C.3     1  UNL1       -0.0260
     62 C          14.6613    1.8468    0.0000 C.3     1  UNL1        0.0621
     63 C          13.5153    9.1256    0.0000 C.3     1  UNL1       -0.0572
     64 C          15.7241   10.4492    0.0000 C.3     1  UNL1        0.0018
     65 C          16.7241   10.4522    0.0000 C.3     1  UNL1       -0.0435
     66 C          17.2215   11.3198    0.0000 C.3     1  UNL1       -0.0201
     67 C          13.7953    0.3469    0.0000 C.3     1  UNL1        0.1882
     68 C          13.7953   -0.6531    0.0000 C.3     1  UNL1        0.1341
     69 C          18.2215   11.3227    0.0000 C.3     1  UNL1        0.0533
     70 C          16.7189   12.1843    0.0000 C.3     1  UNL1       -0.0603
     71 C          12.9292   -1.1531    0.0000 C.3     1  UNL1        0.1144
     72 C          12.0632    0.3469    0.0000 C.3     1  UNL1        0.1134
     73 C          12.0632   -0.6531    0.0000 C.3     1  UNL1        0.1184
     74 C          11.1972    0.8469    0.0000 C.3     1  UNL1        0.0730
     75 C          19.7189   12.1932    0.0000 C.3     1  UNL1        0.1879
     76 C          11.1972   -2.1532    0.0000 C.3     1  UNL1        0.1884
     77 C          20.2163   13.0608    0.0000 C.3     1  UNL1        0.1341
     78 C          21.2163   13.0638    0.0000 C.3     1  UNL1        0.1141
     79 C          10.3312   -2.6532    0.0000 C.3     1  UNL1        0.1341
     80 C          21.2215   11.3317    0.0000 C.3     1  UNL1        0.1130
     81 C          21.7189   12.1992    0.0000 C.3     1  UNL1        0.1119
     82 C          10.3312   -3.6532    0.0000 C.3     1  UNL1        0.1144
     83 C          12.0632   -3.6532    0.0000 C.3     1  UNL1        0.1134
     84 C          11.1972   -4.1532    0.0000 C.3     1  UNL1        0.1184
     85 C          21.7241   10.4672    0.0000 C.3     1  UNL1        0.0730
     86 C          12.9292   -4.1532    0.0000 C.3     1  UNL1        0.0730
     87 C          10.3312   -5.6532    0.0000 C.3     1  UNL1        0.1888
     88 C          10.3312   -6.6532    0.0000 C.3     1  UNL1        0.1410
     89 C           9.4651   -7.1532    0.0000 C.3     1  UNL1        0.1209
     90 C           8.5991   -5.6532    0.0000 C.3     1  UNL1        0.1130
     91 C           8.5991   -6.6532    0.0000 C.3     1  UNL1        0.1123
     92 C           7.7331   -5.1532    0.0000 C.3     1  UNL1        0.0730
     93 C          12.0632   -6.6532    0.0000 C.3     1  UNL1        0.1881
     94 C           8.5991   -8.6532    0.0000 C.3     1  UNL1        0.1887
     95 C          12.9292   -7.1532    0.0000 C.3     1  UNL1        0.1341
     96 C           8.5991   -9.6532    0.0000 C.3     1  UNL1        0.1406
     97 C          13.7953   -6.6532    0.0000 C.3     1  UNL1        0.1137
     98 C           7.7331  -10.1531    0.0000 C.3     1  UNL1        0.1147
     99 C          12.9292   -5.1532    0.0000 C.3     1  UNL1        0.0792
    100 C          13.7953   -5.6532    0.0000 C.3     1  UNL1        0.1069
    101 C           6.8671   -8.6532    0.0000 C.3     1  UNL1        0.0877
    102 C           6.8671   -9.6532    0.0000 C.3     1  UNL1        0.1160
    103 C           6.0010   -8.1532    0.0000 C.3     1  UNL1       -0.0361
    104 C           9.4651  -11.1531    0.0000 C.3     1  UNL1        0.1884
    105 C          10.3312  -11.6531    0.0000 C.3     1  UNL1        0.1341
    106 C           5.1350   -9.6532    0.0000 C.3     1  UNL1        0.1883
    107 C          10.3312  -12.6531    0.0000 C.3     1  UNL1        0.1140
    108 C           4.2690  -10.1531    0.0000 C.3     1  UNL1        0.1341
    109 C           8.5991  -12.6531    0.0000 C.3     1  UNL1        0.0873
    110 C           9.4651  -13.1531    0.0000 C.3     1  UNL1        0.1095
    111 C           3.4030   -9.6532    0.0000 C.3     1  UNL1        0.1140
    112 C           4.2690   -8.1532    0.0000 C.3     1  UNL1        0.0873
    113 C           3.4030   -8.6532    0.0000 C.3     1  UNL1        0.1095
    114 C           7.7331  -13.1531    0.0000 C.3     1  UNL1       -0.0361
    115 C           4.2690   -7.1532    0.0000 C.3     1  UNL1       -0.0361
    116 H          16.3368    6.2053    0.0000 H       1  UNL1        0.0314
    117 H          16.2935    5.9806    0.0000 H       1  UNL1        0.0307
    118 H          14.0507    7.9268    0.0000 H       1  UNL1        0.0339
    119 H          15.4327    4.6159    0.0000 H       1  UNL1        0.0313
    120 H          16.7292    8.2164    0.0000 H       1  UNL1        0.0600
    121 H          16.6603    6.7175    0.0000 H       1  UNL1        0.0293
    122 H          16.8282    7.5298    0.0000 H       1  UNL1        0.0293
    123 H          16.3257    3.0586    0.0000 H       1  UNL1        0.0307
    124 H          14.1039    8.4368    0.0000 H       1  UNL1        0.0354
    125 H          13.2193    5.6457    0.0000 H       1  UNL1        0.0345
    126 H          13.6205    4.9570    0.0000 H       1  UNL1        0.0345
    127 H          17.0863    4.9447    0.0000 H       1  UNL1        0.0268
    128 H          16.6766    5.6298    0.0000 H       1  UNL1        0.0268
    129 H          16.7021    3.4209    0.0000 H       1  UNL1        0.0268
    130 H          17.0959    4.1153    0.0000 H       1  UNL1        0.0268
    131 H          13.5340    4.0640    0.0000 H       1  UNL1        0.0271
    132 H          13.1243    3.3789    0.0000 H       1  UNL1        0.0271
    133 H          14.1305    8.0785    0.0000 H       1  UNL1        0.0239
    134 H          13.2845    7.8483    0.0000 H       1  UNL1        0.0239
    135 H          13.5147    7.0022    0.0000 H       1  UNL1        0.0239
    136 H          15.8146    1.8117    0.0000 H       1  UNL1        0.0293
    137 H          16.2084    2.5061    0.0000 H       1  UNL1        0.0293
    138 H          14.1342    5.0412    0.0000 H       1  UNL1        0.0235
    139 H          13.2864    4.8176    0.0000 H       1  UNL1        0.0235
    140 H          13.5101    3.9698    0.0000 H       1  UNL1        0.0235
    141 H          13.1142    2.5061    0.0000 H       1  UNL1        0.0290
    142 H          13.5080    1.8117    0.0000 H       1  UNL1        0.0290
    143 H          14.1238    1.5379    0.0000 H       1  UNL1        0.0597
    144 H          13.6435    9.7322    0.0000 H       1  UNL1        0.0234
    145 H          12.9087    9.2538    0.0000 H       1  UNL1        0.0234
    146 H          13.3872    8.5190    0.0000 H       1  UNL1        0.0234
    147 H          15.8299   11.0601    0.0000 H       1  UNL1        0.0317
    148 H          15.1409   10.6596    0.0000 H       1  UNL1        0.0317
    149 H          14.7452   10.9131    0.0000 H       1  UNL1        0.2128
    150 H          16.6182    9.8413    0.0000 H       1  UNL1        0.0270
    151 H          17.3073   10.2419    0.0000 H       1  UNL1        0.0270
    152 H          16.6015   11.3179    0.0000 H       1  UNL1        0.0320
    153 H          14.3322    0.0369    0.0000 H       1  UNL1        0.0937
    154 H          13.7953   -1.2732    0.0000 H       1  UNL1        0.0671
    155 H          18.1157   10.7118    0.0000 H       1  UNL1        0.0563
    156 H          18.8047   11.1124    0.0000 H       1  UNL1        0.0563
    157 H          17.2549   12.4959    0.0000 H       1  UNL1        0.0233
    158 H          16.4073   12.7203    0.0000 H       1  UNL1        0.0233
    159 H          16.1829   11.8727    0.0000 H       1  UNL1        0.0233
    160 H          12.3923   -1.4632    0.0000 H       1  UNL1        0.0648
    161 H          12.0632    0.9669    0.0000 H       1  UNL1        0.0647
    162 H          11.5263   -0.3431    0.0000 H       1  UNL1        0.0651
    163 H          15.1982   -0.8431    0.0000 H       1  UNL1        0.2101
    164 H          10.5866    0.9545    0.0000 H       1  UNL1        0.0584
    165 H          10.9851    0.2642    0.0000 H       1  UNL1        0.0584
    166 H          13.4662   -2.4632    0.0000 H       1  UNL1        0.2100
    167 H          19.4105   11.6554    0.0000 H       1  UNL1        0.0937
    168 H          10.6603   -1.8432    0.0000 H       1  UNL1        0.0938
    169 H          19.5963   13.0589    0.0000 H       1  UNL1        0.0671
    170 H          10.6603    2.1568    0.0000 H       1  UNL1        0.2095
    171 H          21.8363   13.0656    0.0000 H       1  UNL1        0.0648
    172 H          10.8932   -2.0332    0.0000 H       1  UNL1        0.0671
    173 H          20.9131   10.7938    0.0000 H       1  UNL1        0.0647
    174 H          22.0305   11.6632    0.0000 H       1  UNL1        0.0647
    175 H          10.3312   -4.2732    0.0000 H       1  UNL1        0.0648
    176 H          20.0221   14.4631    0.0000 H       1  UNL1        0.2101
    177 H          12.6002   -3.3432    0.0000 H       1  UNL1        0.0647
    178 H          11.7341   -4.4632    0.0000 H       1  UNL1        0.0651
    179 H          21.1421   10.2534    0.0000 H       1  UNL1        0.0584
    180 H          21.8336    9.8569    0.0000 H       1  UNL1        0.0584
    181 H          22.3337   13.9331    0.0000 H       1  UNL1        0.2100
    182 H           9.4651   -1.5332    0.0000 H       1  UNL1        0.2101
    183 H          23.0273   12.7401    0.0000 H       1  UNL1        0.2100
    184 H          12.5307   -4.6281    0.0000 H       1  UNL1        0.0584
    185 H          13.3278   -4.6281    0.0000 H       1  UNL1        0.0584
    186 H           8.9282   -3.8432    0.0000 H       1  UNL1        0.2100
    187 H          23.0357    9.9342    0.0000 H       1  UNL1        0.2095
    188 H          10.8681   -5.9632    0.0000 H       1  UNL1        0.0938
    189 H          14.3322   -3.9632    0.0000 H       1  UNL1        0.2095
    190 H          10.3312   -7.2732    0.0000 H       1  UNL1        0.0675
    191 H           8.9282   -7.4632    0.0000 H       1  UNL1        0.0651
    192 H           8.5991   -5.0332    0.0000 H       1  UNL1        0.0647
    193 H           8.0622   -6.3431    0.0000 H       1  UNL1        0.0647
    194 H           7.1225   -5.0455    0.0000 H       1  UNL1        0.0584
    195 H           7.5210   -5.7358    0.0000 H       1  UNL1        0.0584
    196 H          12.0632   -7.2732    0.0000 H       1  UNL1        0.0937
    197 H           7.1962   -6.8432    0.0000 H       1  UNL1        0.2100
    198 H           8.5991   -8.0331    0.0000 H       1  UNL1        0.0938
    199 H          13.4662   -7.4632    0.0000 H       1  UNL1        0.0671
    200 H           8.5991  -10.2731    0.0000 H       1  UNL1        0.0675
    201 H           7.1962   -3.8432    0.0000 H       1  UNL1        0.2095
    202 H          14.3322   -6.3431    0.0000 H       1  UNL1        0.0647
    203 H           7.1962  -10.4631    0.0000 H       1  UNL1        0.0648
    204 H          13.3278   -4.6782    0.0000 H       1  UNL1        0.0587
    205 H          12.5307   -4.6782    0.0000 H       1  UNL1        0.0587
    206 H          13.7953   -5.0332    0.0000 H       1  UNL1        0.0643
    207 H           6.8671   -8.0331    0.0000 H       1  UNL1        0.0621
    208 H           6.3301   -9.3432    0.0000 H       1  UNL1        0.0650
    209 H          13.4662   -8.4632    0.0000 H       1  UNL1        0.2101
    210 H           6.3110   -7.6162    0.0000 H       1  UNL1        0.0255
    211 H           5.4641   -7.8432    0.0000 H       1  UNL1        0.0255
    212 H           5.6910   -8.6901    0.0000 H       1  UNL1        0.0255
    213 H          15.1982   -6.8432    0.0000 H       1  UNL1        0.2100
    214 H          10.0021  -10.8431    0.0000 H       1  UNL1        0.0938
    215 H           7.1962  -11.4631    0.0000 H       1  UNL1        0.2100
    216 H          14.6613   -4.5332    0.0000 H       1  UNL1        0.2100
    217 H          10.8681  -11.9631    0.0000 H       1  UNL1        0.0671
    218 H           5.1350  -10.2731    0.0000 H       1  UNL1        0.0938
    219 H          10.3312  -13.2731    0.0000 H       1  UNL1        0.0648
    220 H           3.7320  -10.4632    0.0000 H       1  UNL1        0.0671
    221 H           8.0622  -12.3431    0.0000 H       1  UNL1        0.0621
    222 H           8.9282  -13.4631    0.0000 H       1  UNL1        0.0646
    223 H           2.8660   -9.3432    0.0000 H       1  UNL1        0.0648
    224 H           4.8059   -7.8432    0.0000 H       1  UNL1        0.0621
    225 H           3.4030   -8.0331    0.0000 H       1  UNL1        0.0646
    226 H          11.7341  -11.4631    0.0000 H       1  UNL1        0.2101
    227 H           7.4231  -12.6162    0.0000 H       1  UNL1        0.0255
    228 H           7.1962  -13.4631    0.0000 H       1  UNL1        0.0255
    229 H           8.0431  -13.6901    0.0000 H       1  UNL1        0.0255
    230 H          11.1972  -13.7731    0.0000 H       1  UNL1        0.2100
    231 H           3.7320  -11.4631    0.0000 H       1  UNL1        0.2101
    232 H           4.8890   -7.1532    0.0000 H       1  UNL1        0.0255
    233 H           4.2690   -6.5332    0.0000 H       1  UNL1        0.0255
    234 H           3.6490   -7.1532    0.0000 H       1  UNL1        0.0255
    235 H           8.9282  -14.4631    0.0000 H       1  UNL1        0.2100
    236 H           2.0000   -9.8432    0.0000 H       1  UNL1        0.2100
    237 H           2.5369   -7.5332    0.0000 H       1  UNL1        0.2100
@<TRIPOS>BOND
     1     1    48    1
     2     1    56    1
     3     2    54    2
     4    56     3    1
     5     3   149    1
     6    62     4    1
     7    67     4    1
     8     5    67    1
     9     5    72    1
    10     6    69    1
    11    75     6    1
    12    68     7    1
    13     7   163    1
    14    71     8    1
    15     8   166    1
    16    73     9    1
    17    76     9    1
    18    10    74    1
    19    10   170    1
    20    11    75    1
    21    11    80    1
    22    12    76    1
    23    12    83    1
    24    77    13    1
    25    13   176    1
    26    78    14    1
    27    14   181    1
    28    79    15    1
    29    15   182    1
    30    81    16    1
    31    16   183    1
    32    82    17    1
    33    17   186    1
    34    84    18    1
    35    87    18    1
    36    19    85    1
    37    19   187    1
    38    20    86    1
    39    20   189    1
    40    21    87    1
    41    21    90    1
    42    88    22    1
    43    93    22    1
    44    89    23    1
    45    94    23    1
    46    91    24    1
    47    24   197    1
    48    25    93    1
    49    25    99    1
    50    26    92    1
    51    26   201    1
    52    27    94    1
    53    27   101    1
    54    95    28    1
    55    28   209    1
    56    96    29    1
    57   104    29    1
    58    97    30    1
    59    30   213    1
    60    98    31    1
    61    31   215    1
    62   102    32    1
    63   106    32    1
    64   100    33    1
    65    33   216    1
    66    34   104    1
    67    34   109    1
    68    35   106    1
    69    35   112    1
    70   105    36    1
    71    36   226    1
    72   107    37    1
    73    37   230    1
    74   108    38    1
    75    38   231    1
    76   110    39    1
    77    39   235    1
    78   111    40    1
    79    40   236    1
    80   113    41    1
    81    41   237    1
    82    42    43    1
    83    42    44    1
    84    42    49    1
    85    42   116    1
    86    43    45    1
    87    43    54    1
    88    43    58    1
    89    44    46    1
    90    44    53    1
    91    44   117    1
    92    45    48    1
    93    45    51    1
    94    45   118    1
    95    46    47    1
    96    46    52    1
    97    46   119    1
    98    47    50    1
    99    47    57    1
   100    47    60    1
   101    48    49    1
   102    48   120    1
   103    49   121    1
   104    49   122    1
   105    50    55    1
   106    50    59    1
   107    50   123    1
   108    51    56    1
   109    51    63    1
   110    51   124    1
   111    52    54    1
   112    52   125    1
   113    52   126    1
   114    53    55    1
   115    53   127    1
   116    53   128    1
   117    55   129    1
   118    55   130    1
   119    56    64    1
   120    57    61    1
   121    57   131    1
   122    57   132    1
   123    58   133    1
   124    58   134    1
   125    58   135    1
   126    59    62    1
   127    59   136    1
   128    59   137    1
   129    60   138    1
   130    60   139    1
   131    60   140    1
   132    61    62    1
   133    61   141    1
   134    61   142    1
   135    62   143    1
   136    63   144    1
   137    63   145    1
   138    63   146    1
   139    64    65    1
   140    64   147    1
   141    64   148    1
   142    65    66    1
   143    65   150    1
   144    65   151    1
   145    66    69    1
   146    66    70    1
   147    66   152    1
   148    67    68    1
   149    67   153    1
   150    68    71    1
   151    68   154    1
   152    69   155    1
   153    69   156    1
   154    70   157    1
   155    70   158    1
   156    70   159    1
   157    71    73    1
   158    71   160    1
   159    72    73    1
   160    72    74    1
   161    72   161    1
   162    73   162    1
   163    74   164    1
   164    74   165    1
   165    75    77    1
   166    75   167    1
   167    76    79    1
   168    76   168    1
   169    77    78    1
   170    77   169    1
   171    78    81    1
   172    78   171    1
   173    79    82    1
   174    79   172    1
   175    80    81    1
   176    80    85    1
   177    80   173    1
   178    81   174    1
   179    82    84    1
   180    82   175    1
   181    83    84    1
   182    83    86    1
   183    83   177    1
   184    84   178    1
   185    85   179    1
   186    85   180    1
   187    86   184    1
   188    86   185    1
   189    87    88    1
   190    87   188    1
   191    88    89    1
   192    88   190    1
   193    89    91    1
   194    89   191    1
   195    90    91    1
   196    90    92    1
   197    90   192    1
   198    91   193    1
   199    92   194    1
   200    92   195    1
   201    93    95    1
   202    93   196    1
   203    94    96    1
   204    94   198    1
   205    95    97    1
   206    95   199    1
   207    96    98    1
   208    96   200    1
   209    97   100    1
   210    97   202    1
   211    98   102    1
   212    98   203    1
   213    99   100    1
   214    99   204    1
   215    99   205    1
   216   100   206    1
   217   101   102    1
   218   101   103    1
   219   101   207    1
   220   102   208    1
   221   103   210    1
   222   103   211    1
   223   103   212    1
   224   104   105    1
   225   104   214    1
   226   105   107    1
   227   105   217    1
   228   106   108    1
   229   106   218    1
   230   107   110    1
   231   107   219    1
   232   108   111    1
   233   108   220    1
   234   109   110    1
   235   109   114    1
   236   109   221    1
   237   110   222    1
   238   111   113    1
   239   111   223    1
   240   112   113    1
   241   112   115    1
   242   112   224    1
   243   113   225    1
   244   114   227    1
   245   114   228    1
   246   114   229    1
   247   115   232    1
   248   115   233    1
   249   115   234    1
