@<TRIPOS>MOLECULE
IMPHY000393
 65 68 0 0 0
SMALL
GASTEIGER

@<TRIPOS>ATOM
      1 O           5.1350   -1.6796    0.0000 O.3     1  UNL1       -0.3313
      2 O           6.8671   -1.6796    0.0000 O.3     1  UNL1       -0.4606
      3 O           5.1350   -4.6796    0.0000 O.3     1  UNL1       -0.3864
      4 O           3.4030   -3.6796    0.0000 O.3     1  UNL1       -0.3865
      5 O           6.8671   -3.6796    0.0000 O.3     1  UNL1       -0.3829
      6 O           2.5369   -2.1796    0.0000 O.3     1  UNL1       -0.3924
      7 O           8.6230    1.3829    0.0000 O.2     1  UNL1       -0.4542
      8 O           5.1208    1.3996    0.0000 O.3     1  UNL1       -0.5058
      9 O           6.0308    2.8930    0.0000 O.2     1  UNL1       -0.2869
     10 O          10.3551    1.3763    0.0000 O.3     1  UNL1       -0.5057
     11 O          12.0987    4.3696    0.0000 O.3     1  UNL1       -0.5064
     12 C           5.1350   -3.6796    0.0000 C.3     1  UNL1        0.1152
     13 C           4.2690   -3.1796    0.0000 C.3     1  UNL1        0.1120
     14 C           6.0010   -3.1796    0.0000 C.3     1  UNL1        0.1454
     15 C           4.2690   -2.1796    0.0000 C.3     1  UNL1        0.1140
     16 C           6.0010   -2.1796    0.0000 C.3     1  UNL1        0.2308
     17 C           3.4030   -1.6796    0.0000 C.3     1  UNL1        0.0731
     18 C           6.8671   -0.6796    0.0000 C.ar    1  UNL1        0.1310
     19 C           7.7671   -0.1553    0.0000 C.ar    1  UNL1        0.0235
     20 C           5.9670   -0.1553    0.0000 C.ar    1  UNL1        0.0226
     21 C           7.7551    0.8863    0.0000 C.ar    1  UNL1        0.1462
     22 C           6.8910    1.3896    0.0000 C.ar    1  UNL1        0.1055
     23 C           5.9790    0.8863    0.0000 C.ar    1  UNL1        0.1347
     24 C           8.6269    2.3829    0.0000 C.ar    1  UNL1        0.1427
     25 C           6.8948    2.3896    0.0000 C.ar    1  UNL1        0.1966
     26 C           9.4948    2.8796    0.0000 C.ar    1  UNL1        0.0593
     27 C           7.7628    2.8863    0.0000 C.ar    1  UNL1        0.0289
     28 C          10.3589    2.3763    0.0000 C.ar    1  UNL1        0.1344
     29 C          11.2269    2.8729    0.0000 C.ar    1  UNL1        0.0398
     30 C           9.4987    3.8796    0.0000 C.ar    1  UNL1       -0.0441
     31 C          12.0910    2.3696    0.0000 C.3     1  UNL1       -0.0023
     32 C          11.2307    3.8729    0.0000 C.ar    1  UNL1        0.1238
     33 C          10.3666    4.3762    0.0000 C.ar    1  UNL1       -0.0190
     34 C          12.9589    2.8662    0.0000 C.2     1  UNL1       -0.0807
     35 C          13.8230    2.3629    0.0000 C.2     1  UNL1       -0.0793
     36 C          14.6909    2.8596    0.0000 C.3     1  UNL1       -0.0440
     37 C          13.8191    1.3629    0.0000 C.3     1  UNL1       -0.0440
     38 H           5.6720   -3.9896    0.0000 H       1  UNL1        0.0648
     39 H           4.2690   -3.7996    0.0000 H       1  UNL1        0.0647
     40 H           6.5380   -2.8696    0.0000 H       1  UNL1        0.0683
     41 H           4.2690   -1.5596    0.0000 H       1  UNL1        0.0647
     42 H           6.0010   -1.5596    0.0000 H       1  UNL1        0.1084
     43 H           3.8015   -1.2046    0.0000 H       1  UNL1        0.0584
     44 H           3.0044   -1.2046    0.0000 H       1  UNL1        0.0584
     45 H           4.5981   -4.9896    0.0000 H       1  UNL1        0.2100
     46 H           3.4030   -4.2996    0.0000 H       1  UNL1        0.2100
     47 H           6.8671   -4.2996    0.0000 H       1  UNL1        0.2102
     48 H           2.0000   -1.8696    0.0000 H       1  UNL1        0.2095
     49 H           8.3064   -0.4611    0.0000 H       1  UNL1        0.0691
     50 H           5.4277   -0.4611    0.0000 H       1  UNL1        0.0691
     51 H           7.7652    3.5063    0.0000 H       1  UNL1        0.0693
     52 H          11.6906    1.8962    0.0000 H       1  UNL1        0.0358
     53 H          12.4877    1.8931    0.0000 H       1  UNL1        0.0358
     54 H           8.9630    4.1916    0.0000 H       1  UNL1        0.0627
     55 H           4.5792    1.0979    0.0000 H       1  UNL1        0.2922
     56 H          10.3690    4.9962    0.0000 H       1  UNL1        0.0654
     57 H          12.9613    3.4862    0.0000 H       1  UNL1        0.0575
     58 H          10.8908    1.0642    0.0000 H       1  UNL1        0.2922
     59 H          12.1011    4.9896    0.0000 H       1  UNL1        0.2921
     60 H          14.9989    2.3214    0.0000 H       1  UNL1        0.0274
     61 H          13.1991    1.3653    0.0000 H       1  UNL1        0.0274
     62 H          13.8168    0.7429    0.0000 H       1  UNL1        0.0274
     63 H          15.2291    3.1675    0.0000 H       1  UNL1        0.0274
     64 H          14.3830    3.3977    0.0000 H       1  UNL1        0.0274
     65 H          14.4391    1.3605    0.0000 H       1  UNL1        0.0274
@<TRIPOS>BOND
     1     1    15    1
     2     1    16    1
     3    16     2    1
     4     2    18    1
     5    12     3    1
     6     3    45    1
     7    13     4    1
     8     4    46    1
     9    14     5    1
    10     5    47    1
    11     6    17    1
    12     6    48    1
    13     7    21   ar
    14     7    24   ar
    15     8    23    1
    16     8    55    1
    17     9    25    2
    18    10    28    1
    19    10    58    1
    20    11    32    1
    21    11    59    1
    22    12    13    1
    23    12    14    1
    24    12    38    1
    25    13    15    1
    26    13    39    1
    27    14    16    1
    28    14    40    1
    29    15    17    1
    30    15    41    1
    31    16    42    1
    32    17    43    1
    33    17    44    1
    34    18    19   ar
    35    18    20   ar
    36    19    21   ar
    37    19    49    1
    38    20    23   ar
    39    20    50    1
    40    21    22   ar
    41    22    23   ar
    42    22    25   ar
    43    24    26    1
    44    24    27   ar
    45    25    27   ar
    46    26    28   ar
    47    26    30   ar
    48    27    51    1
    49    28    29   ar
    50    29    31    1
    51    29    32   ar
    52    30    33   ar
    53    30    54    1
    54    31    34    1
    55    31    52    1
    56    31    53    1
    57    32    33   ar
    58    33    56    1
    59    34    35    2
    60    34    57    1
    61    35    36    1
    62    35    37    1
    63    36    60    1
    64    36    63    1
    65    36    64    1
    66    37    61    1
    67    37    62    1
    68    37    65    1
