@<TRIPOS>MOLECULE
IMPHY010725
 46 51 0 0 0
SMALL
GASTEIGER

@<TRIPOS>ATOM
      1 O          10.9439   -3.9873    0.0000 O.3     1  UNL1       -0.4476
      2 C           9.7986   -3.3369    0.0000 C.3     1  UNL1        0.1937
      3 C           8.6816   -3.9873    0.0000 C.3     1  UNL1        0.0404
      4 C           8.6816   -5.3023    0.0000 C.3     1  UNL1        0.0202
      5 C           7.5504   -5.9527    0.0000 C.3     1  UNL1        0.1146
      6 O           8.8230   -6.2637    0.0000 O.3     1  UNL1       -0.3536
      7 C           7.9181   -7.2111    0.0000 C.3     1  UNL1        0.1771
      8 C           7.2818   -8.3564    0.0000 C.3     1  UNL1        0.2399
      9 C           6.0375   -8.7240    0.0000 C.3     1  UNL1        0.2055
     10 C           4.8922   -8.1019    0.0000 C.3     1  UNL1        0.0397
     11 C           4.5246   -6.8435    0.0000 C.3     1  UNL1        0.0292
     12 C           5.1467   -5.6982    0.0000 C.3     1  UNL1        0.0525
     13 C           6.4051   -5.3305    0.0000 C.3     1  UNL1        0.0121
     14 C           6.4051   -3.9873    0.0000 C.3     1  UNL1       -0.0011
     15 C           7.5504   -3.3369    0.0000 C.3     1  UNL1        0.0034
     16 C          10.9439   -5.3023    0.0000 C.2     1  UNL1        0.3169
     17 C           9.7986   -5.9527    0.0000 C.3     1  UNL1        0.1081
     18 C           5.3730   -7.4090    0.0000 C.2     1  UNL1        0.1827
     19 O           3.9873   -7.4090    0.0000 O.2     1  UNL1       -0.2933
     20 C           9.7986   -2.0219    0.0000 C.ar    1  UNL1        0.0580
     21 C          10.8732   -1.2584    0.0000 C.ar    1  UNL1        0.1789
     22 O          10.4773    0.0000    0.0000 O.2     1  UNL1       -0.4475
     23 C           9.1623    0.0000    0.0000 C.ar    1  UNL1        0.1795
     24 C           8.7523   -1.2584    0.0000 C.ar    1  UNL1        0.0430
     25 C           8.6816   -2.7855    0.0000 C.3     1  UNL1        0.0037
     26 O           8.3847   -9.1906    0.0000 O.3     1  UNL1       -0.2117
     27 O           5.9951  -10.2086    0.0000 O.3     1  UNL1       -0.4463
     28 C           7.1263  -10.8732    0.0000 C.2     1  UNL1        0.3368
     29 O           8.2574  -10.2228    0.0000 O.2     1  UNL1       -0.2453
     30 C           4.5246   -9.3461    0.0000 C.3     1  UNL1        0.0035
     31 C           3.6197   -8.4129    0.0000 C.3     1  UNL1        0.0035
     32 C           3.3935   -6.1789    0.0000 C.3     1  UNL1        0.2464
     33 O           3.3935   -4.8781    0.0000 O.3     1  UNL1       -0.2114
     34 C           5.1467   -4.6519    0.0000 C.3     1  UNL1        0.0070
     35 O          12.0750   -5.9527    0.0000 O.2     1  UNL1       -0.2501
     36 C           7.1121  -12.1740    0.0000 C.2     1  UNL1        0.0495
     37 C           8.2433  -12.8386    0.0000 C.2     1  UNL1       -0.0236
     38 C           8.2291  -14.1394    0.0000 C.3     1  UNL1        0.0306
     39 C           2.2623   -6.8435    0.0000 C.2     1  UNL1        0.3475
     40 O           2.2623   -8.1443    0.0000 O.2     1  UNL1       -0.2473
     41 C           5.9810  -12.8103    0.0000 C.3     1  UNL1        0.0375
     42 O           1.1312   -6.1789    0.0000 O.3     1  UNL1       -0.4427
     43 C           0.0000   -6.8435    0.0000 C.3     1  UNL1        0.2557
     44 H           9.7279   -4.7367    0.0000 H       1  UNL1        0.0348
     45 H           7.5504   -4.6943    0.0000 H       1  UNL1        0.0345
     46 H           4.4539   -5.5144    0.0000 H       1  UNL1        0.0353
@<TRIPOS>BOND
     1     1     2    1
     2     1    16    1
     3     2     3    1
     4     2    20    1
     5     3    15    1
     6     3     4    1
     7     3    25    1
     8     4     5    1
     9     4    17    1
    10     4    44    1
    11     5    13    1
    12     5     6    1
    13     5     7    1
    14     7     6    1
    15     7     8    1
    16     8    18    1
    17     8     9    1
    18     8    26    1
    19     9    10    1
    20     9    27    1
    21    10    11    1
    22    10    31    1
    23    10    30    1
    24    11    12    1
    25    11    32    1
    26    11    46    1
    27    12    13    1
    28    12    18    1
    29    12    34    1
    30    13    14    1
    31    13    45    1
    32    14    15    1
    33    16    17    1
    34    16    35    2
    35    18    19    2
    36    20    24   ar
    37    20    21   ar
    38    21    22   ar
    39    22    23   ar
    40    23    24   ar
    41    27    28    1
    42    28    29    2
    43    28    36    1
    44    32    33    1
    45    32    39    1
    46    36    37    2
    47    36    41    1
    48    37    38    1
    49    39    42    1
    50    39    40    2
    51    42    43    1
