@<TRIPOS>MOLECULE
IMPHY009208
 36 38 0 0 0
SMALL
GASTEIGER

@<TRIPOS>ATOM
      1 O           6.3981   -0.3764    0.0000 O.2     1  UNL1       -0.4556
      2 O           8.1301    0.6236    0.0000 O.3     1  UNL1       -0.3732
      3 O           9.6301   -2.9744    0.0000 O.3     1  UNL1       -0.3837
      4 O           6.3981    2.6236    0.0000 O.2     1  UNL1       -0.2869
      5 O           2.8680   -0.4005    0.0000 O.3     1  UNL1       -0.4949
      6 O           4.6497    2.6582    0.0000 O.3     1  UNL1       -0.5058
      7 C           8.1301   -0.3764    0.0000 C.3     1  UNL1        0.1601
      8 C           7.2641    0.1236    0.0000 C.ar    1  UNL1        0.1486
      9 C           7.6301   -1.2424    0.0000 C.2     1  UNL1       -0.0427
     10 C           9.1301   -0.3764    0.0000 C.2     1  UNL1       -0.0427
     11 C           9.1301   -2.1084    0.0000 C.3     1  UNL1        0.0918
     12 C           8.1301   -2.1084    0.0000 C.2     1  UNL1       -0.0526
     13 C           9.6301   -1.2424    0.0000 C.2     1  UNL1       -0.0526
     14 C           5.5320    0.1236    0.0000 C.ar    1  UNL1        0.1459
     15 C           7.2641    1.1236    0.0000 C.ar    1  UNL1        0.0276
     16 C           5.5320    1.1236    0.0000 C.ar    1  UNL1        0.1054
     17 C           6.3981    1.6236    0.0000 C.ar    1  UNL1        0.1964
     18 C           4.6381    1.6583    0.0000 C.ar    1  UNL1        0.1347
     19 C           4.6381   -0.4110    0.0000 C.ar    1  UNL1        0.0233
     20 C           3.7320    0.1028    0.0000 C.ar    1  UNL1        0.1271
     21 C           3.7320    1.1445    0.0000 C.ar    1  UNL1        0.0225
     22 C           2.0000    0.0962    0.0000 C.3     1  UNL1        0.0788
     23 H           9.4401    0.1606    0.0000 H       1  UNL1        0.0606
     24 H           7.0101   -1.2424    0.0000 H       1  UNL1        0.0606
     25 H           9.7501   -2.1084    0.0000 H       1  UNL1        0.0682
     26 H          10.2501   -1.2424    0.0000 H       1  UNL1        0.0599
     27 H           7.8201   -2.6453    0.0000 H       1  UNL1        0.0599
     28 H           7.8010    1.4336    0.0000 H       1  UNL1        0.0691
     29 H           8.6671    0.9336    0.0000 H       1  UNL1        0.2115
     30 H           4.6453   -1.0310    0.0000 H       1  UNL1        0.0691
     31 H           3.1963    1.4565    0.0000 H       1  UNL1        0.0691
     32 H          10.2501   -2.9744    0.0000 H       1  UNL1        0.2106
     33 H           4.1164    2.9744    0.0000 H       1  UNL1        0.2922
     34 H           2.3079    0.6343    0.0000 H       1  UNL1        0.0660
     35 H           1.4619    0.4041    0.0000 H       1  UNL1        0.0660
     36 H           1.6921   -0.4420    0.0000 H       1  UNL1        0.0660
@<TRIPOS>BOND
     1     1     8   ar
     2     1    14   ar
     3     2     7    1
     4     2    29    1
     5     3    11    1
     6     3    32    1
     7     4    17    2
     8     5    20    1
     9     5    22    1
    10     6    18    1
    11     6    33    1
    12     7     8    1
    13     7     9    1
    14     7    10    1
    15     8    15   ar
    16     9    12    2
    17     9    24    1
    18    10    13    2
    19    10    23    1
    20    11    12    1
    21    11    13    1
    22    11    25    1
    23    12    27    1
    24    13    26    1
    25    14    16   ar
    26    14    19   ar
    27    15    17   ar
    28    15    28    1
    29    16    17   ar
    30    16    18   ar
    31    18    21   ar
    32    19    20   ar
    33    19    30    1
    34    20    21   ar
    35    21    31    1
    36    22    34    1
    37    22    35    1
    38    22    36    1
