@<TRIPOS>MOLECULE
IMPHY008276
 80 87 0 0 0
SMALL
GASTEIGER

@<TRIPOS>ATOM
      1 O           8.8200    2.4746    0.0000 O.2     1  UNL1       -0.4832
      2 O          10.7041    0.2608    0.0000 O.3     1  UNL1       -0.4829
      3 O           7.9839   -0.1456    0.0000 O.3     1  UNL1       -0.3281
      4 O          12.2580    3.5246    0.0000 O.3     1  UNL1       -0.4452
      5 O           8.5408   -0.3282    0.0000 O.3     1  UNL1       -0.3721
      6 O          10.0260    4.3907    0.0000 O.3     1  UNL1       -0.3587
      7 O           9.5260    3.5246    0.0000 O.3     1  UNL1       -0.3587
      8 O          11.3920    5.0246    0.0000 O.3     1  UNL1       -0.3454
      9 O           6.7593    0.9793    0.0000 O.3     1  UNL1       -0.4275
     10 O           8.3448   -2.4091    0.0000 O.3     1  UNL1       -0.4584
     11 O          10.5259    5.5427    0.0000 O.2     1  UNL1       -0.2854
     12 O          14.0282    2.5278    0.0000 O.3     1  UNL1       -0.5009
     13 O          14.0440    0.4795    0.0000 O.3     1  UNL1       -0.5031
     14 O           5.1853    1.3556    0.0000 O.2     1  UNL1       -0.2449
     15 O           7.6252   -3.8587    0.0000 O.2     1  UNL1       -0.2449
     16 O           4.0840   -2.6669    0.0000 O.3     1  UNL1       -0.5028
     17 O           3.8313   -2.1267    0.0000 O.3     1  UNL1       -0.5028
     18 O           2.6926    0.4472    0.0000 O.3     1  UNL1       -0.5032
     19 O           2.5021   -1.5059    0.0000 O.3     1  UNL1       -0.5009
     20 O           5.3305   -5.1903    0.0000 O.3     1  UNL1       -0.5032
     21 O           3.7090   -4.0852    0.0000 O.3     1  UNL1       -0.5009
     22 C          10.5260    2.5246    0.0000 C.3     1  UNL1        0.1092
     23 C           9.7282    0.1166    0.0000 C.3     1  UNL1        0.1591
     24 C           8.8762    0.6138    0.0000 C.3     1  UNL1        0.1401
     25 C           8.5216    1.5344    0.0000 C.3     1  UNL1        0.1910
     26 C          10.5260    3.5246    0.0000 C.3     1  UNL1        0.2545
     27 C          11.3920    4.0246    0.0000 C.3     1  UNL1        0.3299
     28 C           8.9290   -0.4994    0.0000 C.3     1  UNL1        0.1360
     29 C          11.3920    2.0246    0.0000 C.ar    1  UNL1        0.0556
     30 C           9.6404    3.0224    0.0000 C.2     1  UNL1        0.1150
     31 C           7.7857    0.8439    0.0000 C.3     1  UNL1        0.2453
     32 C          11.3759    0.9831    0.0000 C.ar    1  UNL1        0.1324
     33 C          12.2580    2.5246    0.0000 C.ar    1  UNL1        0.1772
     34 C          10.5182    4.5427    0.0000 C.2     1  UNL1        0.2357
     35 C           9.6365    4.0382    0.0000 C.2     1  UNL1        0.0259
     36 C           8.8985   -1.5343    0.0000 C.3     1  UNL1        0.1226
     37 C          13.1680    2.0178    0.0000 C.ar    1  UNL1        0.2015
     38 C          12.2740    0.4554    0.0000 C.ar    1  UNL1        0.0257
     39 C          13.1761    0.9762    0.0000 C.ar    1  UNL1        0.1655
     40 C           7.7792   -0.9763    0.0000 C.3     1  UNL1        0.0371
     41 C           5.8072    0.5726    0.0000 C.2     1  UNL1        0.3423
     42 C           7.4225   -2.8794    0.0000 C.2     1  UNL1        0.3401
     43 C           5.1955   -0.2627    0.0000 C.ar    1  UNL1        0.0741
     44 C           5.0950   -1.2931    0.0000 C.ar    1  UNL1        0.0458
     45 C           6.3893   -2.8139    0.0000 C.ar    1  UNL1        0.0740
     46 C           5.5337   -2.2309    0.0000 C.ar    1  UNL1        0.0458
     47 C           4.3904    0.2837    0.0000 C.ar    1  UNL1       -0.0017
     48 C           4.1995   -1.6736    0.0000 C.ar    1  UNL1        0.1708
     49 C           6.2929   -3.7821    0.0000 C.ar    1  UNL1       -0.0017
     50 C           4.6678   -2.6746    0.0000 C.ar    1  UNL1        0.1708
     51 C           3.5096   -0.1296    0.0000 C.ar    1  UNL1        0.1628
     52 C           3.4151   -1.0979    0.0000 C.ar    1  UNL1        0.2012
     53 C           5.4112   -4.1936    0.0000 C.ar    1  UNL1        0.1628
     54 C           4.6072   -3.6457    0.0000 C.ar    1  UNL1        0.2012
     55 H          10.1052    1.7861    0.0000 H       1  UNL1        0.0486
     56 H          10.4624   -0.3118    0.0000 H       1  UNL1        0.0788
     57 H           8.2664    0.5019    0.0000 H       1  UNL1        0.0673
     58 H           8.0008    2.2061    0.0000 H       1  UNL1        0.0824
     59 H           9.6861   -0.8857    0.0000 H       1  UNL1        0.0670
     60 H           7.3438    1.5700    0.0000 H       1  UNL1        0.1097
     61 H           9.0996    4.3482    0.0000 H       1  UNL1        0.0688
     62 H           9.2793   -2.0236    0.0000 H       1  UNL1        0.0725
     63 H           8.3057   -1.3529    0.0000 H       1  UNL1        0.0725
     64 H          12.2716   -0.1646    0.0000 H       1  UNL1        0.0692
     65 H           9.4890    4.7007    0.0000 H       1  UNL1        0.2130
     66 H           8.9890    3.8346    0.0000 H       1  UNL1        0.2130
     67 H          11.9289    5.3346    0.0000 H       1  UNL1        0.2144
     68 H           7.3774   -0.5041    0.0000 H       1  UNL1        0.0524
     69 H           7.3070   -1.3781    0.0000 H       1  UNL1        0.0524
     70 H           8.1810   -1.4485    0.0000 H       1  UNL1        0.0524
     71 H          14.5687    2.2240    0.0000 H       1  UNL1        0.2924
     72 H          14.0464   -0.1405    0.0000 H       1  UNL1        0.2923
     73 H           4.4392    0.9018    0.0000 H       1  UNL1        0.0664
     74 H           6.7987   -4.1407    0.0000 H       1  UNL1        0.0664
     75 H           3.6333   -3.0927    0.0000 H       1  UNL1        0.2923
     76 H           3.2156   -2.1999    0.0000 H       1  UNL1        0.2923
     77 H           2.7490    1.0646    0.0000 H       1  UNL1        0.2923
     78 H           2.0000   -1.1421    0.0000 H       1  UNL1        0.2924
     79 H           5.8407   -5.5427    0.0000 H       1  UNL1        0.2923
     80 H           3.6666   -4.7038    0.0000 H       1  UNL1        0.2924
@<TRIPOS>BOND
     1     1    25    1
     2     1    30    1
     3     2    23    1
     4     2    32    1
     5     3    28    1
     6     3    31    1
     7     4    27    1
     8     4    33    1
     9    24     5    1
    10     5    40    1
    11     6    26    1
    12     6    65    1
    13     7    26    1
    14     7    66    1
    15     8    27    1
    16     8    67    1
    17     9    31    1
    18     9    41    1
    19    10    36    1
    20    10    42    1
    21    11    34    2
    22    12    37    1
    23    12    71    1
    24    13    39    1
    25    13    72    1
    26    14    41    2
    27    15    42    2
    28    16    48    1
    29    16    75    1
    30    17    50    1
    31    17    76    1
    32    18    51    1
    33    18    77    1
    34    19    52    1
    35    19    78    1
    36    20    53    1
    37    20    79    1
    38    21    54    1
    39    21    80    1
    40    22    26    1
    41    22    29    1
    42    22    30    1
    43    22    55    1
    44    23    24    1
    45    23    28    1
    46    23    56    1
    47    24    25    1
    48    24    57    1
    49    25    31    1
    50    25    58    1
    51    26    27    1
    52    27    34    1
    53    28    36    1
    54    28    59    1
    55    29    32   ar
    56    29    33   ar
    57    30    35    2
    58    31    60    1
    59    32    38   ar
    60    33    37   ar
    61    34    35    1
    62    35    61    1
    63    36    62    1
    64    36    63    1
    65    37    39   ar
    66    38    39   ar
    67    38    64    1
    68    40    68    1
    69    40    69    1
    70    40    70    1
    71    41    43    1
    72    42    45    1
    73    43    44   ar
    74    43    47   ar
    75    44    46    1
    76    44    48   ar
    77    45    46   ar
    78    45    49   ar
    79    46    50   ar
    80    47    51   ar
    81    47    73    1
    82    48    52   ar
    83    49    53   ar
    84    49    74    1
    85    50    54   ar
    86    51    52   ar
    87    53    54   ar
