@<TRIPOS>MOLECULE
IMPHY012676
 123 130 0 0 0
SMALL
GASTEIGER

@<TRIPOS>ATOM
      1 O           9.4982    3.1674    0.0000 O.3     1  UNL1       -0.3877
      2 O           7.7331   -2.0361    0.0000 O.3     1  UNL1       -0.3454
      3 O           5.8941    6.6811    0.0000 O.3     1  UNL1       -0.4571
      4 O           6.0010   -2.0361    0.0000 O.3     1  UNL1       -0.3431
      5 O           6.5292    8.3461    0.0000 O.2     1  UNL1       -0.2456
      6 O           7.7331   -4.0361    0.0000 O.3     1  UNL1       -0.3377
      7 O           6.0010   -5.0361    0.0000 O.3     1  UNL1       -0.3400
      8 O           4.2690   -4.0361    0.0000 O.3     1  UNL1       -0.3866
      9 O           8.5991   -2.5361    0.0000 O.3     1  UNL1       -0.3405
     10 O           4.2690   -5.0361    0.0000 O.3     1  UNL1       -0.3405
     11 O           9.4651   -5.0361    0.0000 O.3     1  UNL1       -0.3841
     12 O           6.0010   -7.0361    0.0000 O.3     1  UNL1       -0.3841
     13 O          11.1972   -4.0361    0.0000 O.3     1  UNL1       -0.3864
     14 O          11.1972   -2.0361    0.0000 O.3     1  UNL1       -0.3865
     15 O           4.2690   -8.0361    0.0000 O.3     1  UNL1       -0.3864
     16 O           2.5369   -7.0361    0.0000 O.3     1  UNL1       -0.3865
     17 O          10.3312   -0.5361    0.0000 O.3     1  UNL1       -0.3924
     18 O           2.5369   -4.0361    0.0000 O.3     1  UNL1       -0.3924
     19 C           8.6303    3.6641    0.0000 C.3     1  UNL1        0.0751
     20 C           8.6342    2.6641    0.0000 C.3     1  UNL1       -0.0083
     21 C           7.7701    2.1608    0.0000 C.3     1  UNL1       -0.0299
     22 C           7.7624    4.1608    0.0000 C.3     1  UNL1        0.0036
     23 C           7.7580    1.1192    0.0000 C.3     1  UNL1       -0.0259
     24 C           8.6581    0.5949    0.0000 C.3     1  UNL1       -0.0330
     25 C           6.9021    2.6574    0.0000 C.3     1  UNL1       -0.0488
     26 C           6.8983    3.6574    0.0000 C.3     1  UNL1       -0.0442
     27 C           7.9678    5.1334    0.0000 C.3     1  UNL1       -0.0081
     28 C           9.5461    2.1608    0.0000 C.3     1  UNL1       -0.0470
     29 C           9.3647    4.3340    0.0000 C.3     1  UNL1       -0.0226
     30 C           9.5581    1.1192    0.0000 C.3     1  UNL1       -0.0493
     31 C           8.9561    5.2402    0.0000 C.3     1  UNL1       -0.0432
     32 C           6.8081    0.5949    0.0000 C.3     1  UNL1       -0.0448
     33 C           8.6706   -0.4900    0.0000 C.3     1  UNL1       -0.0232
     34 C           6.8944    4.6574    0.0000 C.3     1  UNL1       -0.0564
     35 C           6.8939    1.6225    0.0000 C.3     1  UNL1       -0.0590
     36 C           6.7956   -0.4900    0.0000 C.3     1  UNL1       -0.0260
     37 C           7.7331   -1.0361    0.0000 C.3     1  UNL1        0.0621
     38 C           7.2971    5.8751    0.0000 C.2     1  UNL1       -0.0222
     39 C           6.3028    5.7684    0.0000 C.3     1  UNL1        0.1147
     40 C           7.5029    6.8537    0.0000 C.2     1  UNL1        0.0252
     41 C           6.8671   -2.5361    0.0000 C.3     1  UNL1        0.1885
     42 C           6.6358    7.3518    0.0000 C.2     1  UNL1        0.3323
     43 C           6.8671   -3.5361    0.0000 C.3     1  UNL1        0.1410
     44 C           6.0010   -4.0361    0.0000 C.3     1  UNL1        0.1209
     45 C           5.1350   -2.5361    0.0000 C.3     1  UNL1        0.0873
     46 C           5.1350   -3.5361    0.0000 C.3     1  UNL1        0.1099
     47 C           4.2690   -2.0361    0.0000 C.3     1  UNL1       -0.0361
     48 C           8.5991   -3.5361    0.0000 C.3     1  UNL1        0.1885
     49 C           5.1350   -5.5361    0.0000 C.3     1  UNL1        0.1884
     50 C           9.4651   -4.0361    0.0000 C.3     1  UNL1        0.1341
     51 C           5.1350   -6.5361    0.0000 C.3     1  UNL1        0.1341
     52 C          10.3312   -3.5361    0.0000 C.3     1  UNL1        0.1141
     53 C           9.4651   -2.0361    0.0000 C.3     1  UNL1        0.1130
     54 C          10.3312   -2.5361    0.0000 C.3     1  UNL1        0.1119
     55 C           4.2690   -7.0361    0.0000 C.3     1  UNL1        0.1141
     56 C           3.4030   -5.5361    0.0000 C.3     1  UNL1        0.1130
     57 C           3.4030   -6.5361    0.0000 C.3     1  UNL1        0.1119
     58 C           9.4651   -1.0361    0.0000 C.3     1  UNL1        0.0730
     59 C           2.5369   -5.0361    0.0000 C.3     1  UNL1        0.0730
     60 H           9.3653    3.0976    0.0000 H       1  UNL1        0.0331
     61 H           8.5045    1.7329    0.0000 H       1  UNL1        0.0310
     62 H           9.3974    0.1756    0.0000 H       1  UNL1        0.0307
     63 H           6.2911    2.7627    0.0000 H       1  UNL1        0.0268
     64 H           6.6923    2.0740    0.0000 H       1  UNL1        0.0268
     65 H           6.6840    4.2392    0.0000 H       1  UNL1        0.0272
     66 H           6.2881    3.5474    0.0000 H       1  UNL1        0.0272
     67 H           8.1885    5.7128    0.0000 H       1  UNL1        0.0353
     68 H          10.1581    2.0617    0.0000 H       1  UNL1        0.0269
     69 H           9.7484    2.7468    0.0000 H       1  UNL1        0.0269
     70 H           9.7321    3.8346    0.0000 H       1  UNL1        0.0293
     71 H           9.9000    4.6468    0.0000 H       1  UNL1        0.0293
     72 H           9.7739    0.5380    0.0000 H       1  UNL1        0.0268
     73 H          10.1677    1.2324    0.0000 H       1  UNL1        0.0268
     74 H           9.5450    5.4343    0.0000 H       1  UNL1        0.0272
     75 H           8.8251    5.8462    0.0000 H       1  UNL1        0.0272
     76 H           6.6058    1.1810    0.0000 H       1  UNL1        0.0271
     77 H           6.1961    0.4959    0.0000 H       1  UNL1        0.0271
     78 H           8.8864   -1.0712    0.0000 H       1  UNL1        0.0293
     79 H           9.2802   -0.3769    0.0000 H       1  UNL1        0.0293
     80 H           7.2023    5.1955    0.0000 H       1  UNL1        0.0236
     81 H           6.3563    4.9653    0.0000 H       1  UNL1        0.0236
     82 H           6.5865    4.1193    0.0000 H       1  UNL1        0.0236
     83 H           7.2060    2.1583    0.0000 H       1  UNL1        0.0235
     84 H           6.3582    1.9346    0.0000 H       1  UNL1        0.0235
     85 H           6.5818    1.0868    0.0000 H       1  UNL1        0.0235
     86 H           6.1860   -0.3769    0.0000 H       1  UNL1        0.0290
     87 H           6.5798   -1.0712    0.0000 H       1  UNL1        0.0290
     88 H           8.2706   -1.3451    0.0000 H       1  UNL1        0.0597
     89 H          10.0340    3.4795    0.0000 H       1  UNL1        0.2102
     90 H           5.7136    5.5756    0.0000 H       1  UNL1        0.0746
     91 H           6.4330    5.1623    0.0000 H       1  UNL1        0.0746
     92 H           8.0688    7.1070    0.0000 H       1  UNL1        0.0689
     93 H           7.4040   -2.8461    0.0000 H       1  UNL1        0.0938
     94 H           6.8671   -4.1561    0.0000 H       1  UNL1        0.0675
     95 H           5.4641   -4.3461    0.0000 H       1  UNL1        0.0651
     96 H           5.1350   -1.9161    0.0000 H       1  UNL1        0.0621
     97 H           4.5981   -3.2261    0.0000 H       1  UNL1        0.0646
     98 H           4.5790   -1.4992    0.0000 H       1  UNL1        0.0255
     99 H           3.7320   -1.7261    0.0000 H       1  UNL1        0.0255
    100 H           3.9590   -2.5731    0.0000 H       1  UNL1        0.0255
    101 H           8.5991   -4.1561    0.0000 H       1  UNL1        0.0938
    102 H           3.7320   -3.7261    0.0000 H       1  UNL1        0.2100
    103 H           5.1350   -4.9161    0.0000 H       1  UNL1        0.0938
    104 H          10.0021   -4.3461    0.0000 H       1  UNL1        0.0671
    105 H           5.1350   -7.1561    0.0000 H       1  UNL1        0.0671
    106 H          10.8681   -3.2261    0.0000 H       1  UNL1        0.0648
    107 H           8.9282   -1.7261    0.0000 H       1  UNL1        0.0647
    108 H          10.3312   -1.9161    0.0000 H       1  UNL1        0.0647
    109 H           3.7320   -7.3461    0.0000 H       1  UNL1        0.0648
    110 H           3.4030   -4.9161    0.0000 H       1  UNL1        0.0647
    111 H           3.4030   -7.1561    0.0000 H       1  UNL1        0.0647
    112 H          10.0021   -5.3461    0.0000 H       1  UNL1        0.2101
    113 H           9.2531   -0.4535    0.0000 H       1  UNL1        0.0584
    114 H           8.8546   -1.1438    0.0000 H       1  UNL1        0.0584
    115 H           6.0010   -7.6561    0.0000 H       1  UNL1        0.2101
    116 H          11.7341   -3.7261    0.0000 H       1  UNL1        0.2100
    117 H           1.9264   -4.9285    0.0000 H       1  UNL1        0.0584
    118 H           2.3249   -5.6187    0.0000 H       1  UNL1        0.0584
    119 H          11.1972   -1.4161    0.0000 H       1  UNL1        0.2100
    120 H           3.7320   -8.3461    0.0000 H       1  UNL1        0.2100
    121 H           2.0000   -6.7261    0.0000 H       1  UNL1        0.2100
    122 H          10.3312    0.0839    0.0000 H       1  UNL1        0.2095
    123 H           2.0000   -3.7261    0.0000 H       1  UNL1        0.2095
@<TRIPOS>BOND
     1     1    19    1
     2     1    89    1
     3    37     2    1
     4    41     2    1
     5     3    39    1
     6     3    42    1
     7     4    41    1
     8     4    45    1
     9     5    42    2
    10    43     6    1
    11    48     6    1
    12    44     7    1
    13    49     7    1
    14    46     8    1
    15     8   102    1
    16     9    48    1
    17     9    53    1
    18    10    49    1
    19    10    56    1
    20    50    11    1
    21    11   112    1
    22    51    12    1
    23    12   115    1
    24    52    13    1
    25    13   116    1
    26    54    14    1
    27    14   119    1
    28    55    15    1
    29    15   120    1
    30    57    16    1
    31    16   121    1
    32    17    58    1
    33    17   122    1
    34    18    59    1
    35    18   123    1
    36    19    20    1
    37    19    22    1
    38    19    29    1
    39    20    21    1
    40    20    28    1
    41    20    60    1
    42    21    23    1
    43    21    25    1
    44    21    61    1
    45    22    26    1
    46    22    27    1
    47    22    34    1
    48    23    24    1
    49    23    32    1
    50    23    35    1
    51    24    30    1
    52    24    33    1
    53    24    62    1
    54    25    26    1
    55    25    63    1
    56    25    64    1
    57    26    65    1
    58    26    66    1
    59    27    31    1
    60    27    38    1
    61    27    67    1
    62    28    30    1
    63    28    68    1
    64    28    69    1
    65    29    31    1
    66    29    70    1
    67    29    71    1
    68    30    72    1
    69    30    73    1
    70    31    74    1
    71    31    75    1
    72    32    36    1
    73    32    76    1
    74    32    77    1
    75    33    37    1
    76    33    78    1
    77    33    79    1
    78    34    80    1
    79    34    81    1
    80    34    82    1
    81    35    83    1
    82    35    84    1
    83    35    85    1
    84    36    37    1
    85    36    86    1
    86    36    87    1
    87    37    88    1
    88    38    39    1
    89    38    40    2
    90    39    90    1
    91    39    91    1
    92    40    42    1
    93    40    92    1
    94    41    43    1
    95    41    93    1
    96    43    44    1
    97    43    94    1
    98    44    46    1
    99    44    95    1
   100    45    46    1
   101    45    47    1
   102    45    96    1
   103    46    97    1
   104    47    98    1
   105    47    99    1
   106    47   100    1
   107    48    50    1
   108    48   101    1
   109    49    51    1
   110    49   103    1
   111    50    52    1
   112    50   104    1
   113    51    55    1
   114    51   105    1
   115    52    54    1
   116    52   106    1
   117    53    54    1
   118    53    58    1
   119    53   107    1
   120    54   108    1
   121    55    57    1
   122    55   109    1
   123    56    57    1
   124    56    59    1
   125    56   110    1
   126    57   111    1
   127    58   113    1
   128    58   114    1
   129    59   117    1
   130    59   118    1
