@<TRIPOS>MOLECULE
IMPHY017637
 22 21 0 0 0
SMALL
GASTEIGER

@<TRIPOS>ATOM
      1 S           4.5981    0.4400    0.0000 S.3     1  UNL1       -0.0811
      2 S           5.4641   -0.0600    0.0000 S.3     1  UNL1       -0.0126
      3 S           6.3301    0.4400    0.0000 S.3     1  UNL1       -0.0084
      4 S           7.1962   -0.0600    0.0000 S.3     1  UNL1       -0.0531
      5 C           2.8660    0.4400    0.0000 C.3     1  UNL1       -0.0460
      6 C           3.7320   -0.0600    0.0000 C.3     1  UNL1        0.0045
      7 C           2.0000   -0.0600    0.0000 C.3     1  UNL1       -0.0645
      8 C           8.9282   -0.0600    0.0000 C.2     1  UNL1       -0.0801
      9 C           8.9282   -1.0600    0.0000 C.3     1  UNL1       -0.0460
     10 C           8.0622    0.4400    0.0000 C.2     1  UNL1       -0.0212
     11 H           3.2646    0.9149    0.0000 H       1  UNL1        0.0271
     12 H           2.4675    0.9149    0.0000 H       1  UNL1        0.0271
     13 H           3.3335   -0.5349    0.0000 H       1  UNL1        0.0385
     14 H           4.1306   -0.5349    0.0000 H       1  UNL1        0.0385
     15 H           1.6900    0.4769    0.0000 H       1  UNL1        0.0230
     16 H           1.4631   -0.3700    0.0000 H       1  UNL1        0.0230
     17 H           2.3100   -0.5969    0.0000 H       1  UNL1        0.0230
     18 H           9.4651    0.2500    0.0000 H       1  UNL1        0.0574
     19 H           8.3082   -1.0600    0.0000 H       1  UNL1        0.0272
     20 H           8.9282   -1.6800    0.0000 H       1  UNL1        0.0272
     21 H           9.5482   -1.0600    0.0000 H       1  UNL1        0.0272
     22 H           8.0622    1.0600    0.0000 H       1  UNL1        0.0695
@<TRIPOS>BOND
     1     1     2    1
     2     1     6    1
     3     2     3    1
     4     3     4    1
     5     4    10    1
     6     5     6    1
     7     5     7    1
     8     5    11    1
     9     5    12    1
    10     6    13    1
    11     6    14    1
    12     7    15    1
    13     7    16    1
    14     7    17    1
    15     8     9    1
    16     8    10    2
    17     8    18    1
    18     9    19    1
    19     9    20    1
    20     9    21    1
    21    10    22    1
