@<TRIPOS>MOLECULE
IMPHY008028
 42 44 0 0 0
SMALL
GASTEIGER

@<TRIPOS>ATOM
      1 O           4.7690    1.9130    0.0000 O.3     1  UNL1       -0.3704
      2 O           2.5089    0.6529    0.0000 O.3     1  UNL1       -0.3888
      3 O           6.2370   -0.3252    0.0000 O.3     1  UNL1       -0.3846
      4 O           2.5369   -2.6259    0.0000 O.3     1  UNL1       -0.5033
      5 O           4.2690   -3.6259    0.0000 O.3     1  UNL1       -0.5033
      6 O           9.4175    1.3731    0.0000 O.3     1  UNL1       -0.5033
      7 O           9.0016    3.3294    0.0000 O.3     1  UNL1       -0.5033
      8 C           4.2690    0.3741    0.0000 C.3     1  UNL1        0.0414
      9 C           5.0780    0.9619    0.0000 C.3     1  UNL1        0.0979
     10 C           3.4600    0.9619    0.0000 C.3     1  UNL1        0.0877
     11 C           3.7690    1.9130    0.0000 C.3     1  UNL1        0.0747
     12 C           6.0291    0.6529    0.0000 C.3     1  UNL1        0.1070
     13 C           4.2690   -0.6259    0.0000 C.ar    1  UNL1       -0.0355
     14 C           6.7722    1.3220    0.0000 C.ar    1  UNL1       -0.0130
     15 C           3.4030   -1.1259    0.0000 C.ar    1  UNL1       -0.0129
     16 C           5.1350   -1.1259    0.0000 C.ar    1  UNL1       -0.0545
     17 C           7.7233    1.0130    0.0000 C.ar    1  UNL1       -0.0108
     18 C           6.5643    2.3002    0.0000 C.ar    1  UNL1       -0.0524
     19 C           3.4030   -2.1259    0.0000 C.ar    1  UNL1        0.1585
     20 C           5.1350   -2.1259    0.0000 C.ar    1  UNL1       -0.0163
     21 C           4.2690   -2.6259    0.0000 C.ar    1  UNL1        0.1582
     22 C           8.4664    1.6821    0.0000 C.ar    1  UNL1        0.1586
     23 C           7.3074    2.9693    0.0000 C.ar    1  UNL1       -0.0162
     24 C           8.2585    2.6603    0.0000 C.ar    1  UNL1        0.1582
     25 H           4.8214    0.0927    0.0000 H       1  UNL1        0.0401
     26 H           5.6790    1.5630    0.0000 H       1  UNL1        0.0632
     27 H           3.3630    0.3495    0.0000 H       1  UNL1        0.0623
     28 H           3.8338    2.5296    0.0000 H       1  UNL1        0.0586
     29 H           3.1625    2.0419    0.0000 H       1  UNL1        0.0586
     30 H           5.5683    0.2380    0.0000 H       1  UNL1        0.0670
     31 H           2.0482    1.0678    0.0000 H       1  UNL1        0.2099
     32 H           2.8660   -0.8159    0.0000 H       1  UNL1        0.0658
     33 H           5.6720   -0.8159    0.0000 H       1  UNL1        0.0622
     34 H           6.8266   -0.5168    0.0000 H       1  UNL1        0.2103
     35 H           7.8522    0.4066    0.0000 H       1  UNL1        0.0659
     36 H           5.9746    2.4918    0.0000 H       1  UNL1        0.0622
     37 H           5.6720   -2.4359    0.0000 H       1  UNL1        0.0655
     38 H           7.1785    3.5758    0.0000 H       1  UNL1        0.0655
     39 H           2.0000   -2.3159    0.0000 H       1  UNL1        0.2923
     40 H           4.8059   -3.9359    0.0000 H       1  UNL1        0.2923
     41 H           9.8782    1.7880    0.0000 H       1  UNL1        0.2923
     42 H           8.8727    3.9359    0.0000 H       1  UNL1        0.2923
@<TRIPOS>BOND
     1     1     9    1
     2     1    11    1
     3    10     2    1
     4     2    31    1
     5    12     3    1
     6     3    34    1
     7     4    19    1
     8     4    39    1
     9     5    21    1
    10     5    40    1
    11     6    22    1
    12     6    41    1
    13     7    24    1
    14     7    42    1
    15     8     9    1
    16     8    10    1
    17     8    13    1
    18     8    25    1
    19     9    12    1
    20     9    26    1
    21    10    11    1
    22    10    27    1
    23    11    28    1
    24    11    29    1
    25    12    14    1
    26    12    30    1
    27    13    15   ar
    28    13    16   ar
    29    14    17   ar
    30    14    18   ar
    31    15    19   ar
    32    15    32    1
    33    16    20   ar
    34    16    33    1
    35    17    22   ar
    36    17    35    1
    37    18    23   ar
    38    18    36    1
    39    19    21   ar
    40    20    21   ar
    41    20    37    1
    42    22    24   ar
    43    23    24   ar
    44    23    38    1
