@<TRIPOS>MOLECULE
IMPHY002782
 71 75 0 0 0
SMALL
GASTEIGER

@<TRIPOS>ATOM
      1 O          12.2392   -1.9037    0.0000 O.3     1  UNL1       -0.4796
      2 O           8.5918    0.8898    0.0000 O.3     1  UNL1       -0.4796
      3 O          10.4269   -3.0990    0.0000 O.3     1  UNL1       -0.4914
      4 O          11.8820    1.4006    0.0000 O.3     1  UNL1       -0.3943
      5 O           6.6304   -1.7932    0.0000 O.3     1  UNL1       -0.3943
      6 O           7.6200    2.8310    0.0000 O.3     1  UNL1       -0.4914
      7 O          15.8228   -2.8310    0.0000 O.3     1  UNL1       -0.4914
      8 O          16.8228   -1.0990    0.0000 O.3     1  UNL1       -0.5033
      9 O           2.6200    2.8310    0.0000 O.3     1  UNL1       -0.3910
     10 C           8.6949   -0.0990    0.0000 C.3     1  UNL1        0.1344
     11 C          12.2392   -0.2942    0.0000 C.3     1  UNL1        0.0520
     12 C           7.7871   -0.5041    0.0000 C.3     1  UNL1        0.0520
     13 C          12.8228   -1.0990    0.0000 C.3     1  UNL1        0.1344
     14 C          11.2929   -0.5990    0.0000 C.ar    1  UNL1        0.0074
     15 C           9.5609   -0.5990    0.0000 C.ar    1  UNL1       -0.0027
     16 C           7.1200    0.2329    0.0000 C.ar    1  UNL1        0.0076
     17 C          11.2929   -1.5990    0.0000 C.ar    1  UNL1        0.1664
     18 C          10.4269   -0.0990    0.0000 C.ar    1  UNL1       -0.0477
     19 C           7.6200    1.0990    0.0000 C.ar    1  UNL1        0.1665
     20 C          12.5498    0.6563    0.0000 C.3     1  UNL1        0.0548
     21 C           7.5809   -1.4826    0.0000 C.3     1  UNL1        0.0548
     22 C           9.5609   -1.5990    0.0000 C.ar    1  UNL1       -0.0096
     23 C          10.4269   -2.0990    0.0000 C.ar    1  UNL1        0.1622
     24 C          13.8228   -1.0990    0.0000 C.ar    1  UNL1       -0.0030
     25 C           6.1200    0.2329    0.0000 C.ar    1  UNL1       -0.0472
     26 C           7.1200    1.9650    0.0000 C.ar    1  UNL1        0.1624
     27 C           5.6200    1.0990    0.0000 C.ar    1  UNL1       -0.0213
     28 C          14.3228   -1.9650    0.0000 C.ar    1  UNL1       -0.0096
     29 C           6.1200    1.9650    0.0000 C.ar    1  UNL1       -0.0091
     30 C          14.3228   -0.2329    0.0000 C.ar    1  UNL1       -0.0514
     31 C          15.3228   -1.9650    0.0000 C.ar    1  UNL1        0.1616
     32 C          15.3228   -0.2329    0.0000 C.ar    1  UNL1       -0.0161
     33 C           4.6200    1.0990    0.0000 C.2     1  UNL1       -0.0563
     34 C          15.8228   -1.0990    0.0000 C.ar    1  UNL1        0.1585
     35 C           9.5609   -3.5990    0.0000 C.3     1  UNL1        0.0790
     36 C           7.1200    3.6970    0.0000 C.3     1  UNL1        0.0790
     37 C           4.1200    1.9650    0.0000 C.2     1  UNL1       -0.0584
     38 C           3.1200    1.9650    0.0000 C.3     1  UNL1        0.0627
     39 C          15.3228   -3.6970    0.0000 C.3     1  UNL1        0.0790
     40 H           9.2150    0.2385    0.0000 H       1  UNL1        0.0791
     41 H          11.8017    0.1451    0.0000 H       1  UNL1        0.0412
     42 H           7.1886   -0.6658    0.0000 H       1  UNL1        0.0412
     43 H          13.1045   -1.6513    0.0000 H       1  UNL1        0.0791
     44 H          10.4269    0.5210    0.0000 H       1  UNL1        0.0625
     45 H          13.0968    0.3643    0.0000 H       1  UNL1        0.0564
     46 H          12.9324    1.1442    0.0000 H       1  UNL1        0.0564
     47 H           7.6682   -2.0964    0.0000 H       1  UNL1        0.0564
     48 H           8.2005   -1.5032    0.0000 H       1  UNL1        0.0564
     49 H           9.0240   -1.9090    0.0000 H       1  UNL1        0.0659
     50 H           5.8100   -0.3040    0.0000 H       1  UNL1        0.0627
     51 H          14.0128   -2.5019    0.0000 H       1  UNL1        0.0659
     52 H           5.8100    2.5019    0.0000 H       1  UNL1        0.0661
     53 H          14.0128    0.3040    0.0000 H       1  UNL1        0.0623
     54 H          12.0746    1.9899    0.0000 H       1  UNL1        0.2094
     55 H           6.5025   -2.3999    0.0000 H       1  UNL1        0.2094
     56 H          15.6328    0.3040    0.0000 H       1  UNL1        0.0655
     57 H           4.3100    0.5620    0.0000 H       1  UNL1        0.0621
     58 H           9.2509   -3.0620    0.0000 H       1  UNL1        0.0660
     59 H           9.0240   -3.9090    0.0000 H       1  UNL1        0.0660
     60 H           9.8709   -4.1359    0.0000 H       1  UNL1        0.0660
     61 H           7.6569    4.0070    0.0000 H       1  UNL1        0.0660
     62 H           6.8100    4.2340    0.0000 H       1  UNL1        0.0660
     63 H           6.5831    3.3870    0.0000 H       1  UNL1        0.0660
     64 H           4.4300    2.5019    0.0000 H       1  UNL1        0.0595
     65 H          17.1328   -0.5620    0.0000 H       1  UNL1        0.2923
     66 H           2.5374    1.7529    0.0000 H       1  UNL1        0.0601
     67 H           3.2277    1.3544    0.0000 H       1  UNL1        0.0601
     68 H          14.7858   -3.3870    0.0000 H       1  UNL1        0.0660
     69 H          15.0128   -4.2340    0.0000 H       1  UNL1        0.0660
     70 H          15.8597   -4.0070    0.0000 H       1  UNL1        0.0660
     71 H           2.0000    2.8310    0.0000 H       1  UNL1        0.2098
@<TRIPOS>BOND
     1     1    13    1
     2     1    17    1
     3     2    10    1
     4     2    19    1
     5     3    23    1
     6     3    35    1
     7     4    20    1
     8     4    54    1
     9     5    21    1
    10     5    55    1
    11     6    26    1
    12     6    36    1
    13     7    31    1
    14     7    39    1
    15     8    34    1
    16     8    65    1
    17     9    38    1
    18     9    71    1
    19    10    12    1
    20    10    15    1
    21    10    40    1
    22    11    13    1
    23    11    14    1
    24    11    20    1
    25    11    41    1
    26    12    16    1
    27    12    21    1
    28    12    42    1
    29    13    24    1
    30    13    43    1
    31    14    17   ar
    32    14    18   ar
    33    15    18   ar
    34    15    22   ar
    35    16    19   ar
    36    16    25   ar
    37    17    23   ar
    38    18    44    1
    39    19    26   ar
    40    20    45    1
    41    20    46    1
    42    21    47    1
    43    21    48    1
    44    22    23   ar
    45    22    49    1
    46    24    28   ar
    47    24    30   ar
    48    25    27   ar
    49    25    50    1
    50    26    29   ar
    51    27    29   ar
    52    27    33    1
    53    28    31   ar
    54    28    51    1
    55    29    52    1
    56    30    32   ar
    57    30    53    1
    58    31    34   ar
    59    32    34   ar
    60    32    56    1
    61    33    37    2
    62    33    57    1
    63    35    58    1
    64    35    59    1
    65    35    60    1
    66    36    61    1
    67    36    62    1
    68    36    63    1
    69    37    38    1
    70    37    64    1
    71    38    66    1
    72    38    67    1
    73    39    68    1
    74    39    69    1
    75    39    70    1
