@<TRIPOS>MOLECULE
IMPHY014415
 53 54 0 0 0
SMALL
GASTEIGER

@<TRIPOS>ATOM
      1 S           9.7942    2.9050    0.0000 S.2     1  UNL1       -0.0103
      2 O           5.4641   -2.5950    0.0000 O.3     1  UNL1       -0.3327
      3 O           3.7320   -4.5950    0.0000 O.3     1  UNL1       -0.4562
      4 O           5.4641   -5.5950    0.0000 O.3     1  UNL1       -0.3852
      5 O           7.1962   -2.5950    0.0000 O.3     1  UNL1       -0.4608
      6 O           7.1962   -4.5950    0.0000 O.3     1  UNL1       -0.3829
      7 O           2.8660   -3.0950    0.0000 O.2     1  UNL1       -0.2512
      8 O           8.9282    4.4050    0.0000 O.3     1  UNL1       -0.4838
      9 N           8.0622    1.9050    0.0000 N.2     1  UNL1       -0.2827
     10 C           4.5981   -4.0950    0.0000 C.3     1  UNL1        0.1571
     11 C           5.4641   -4.5950    0.0000 C.3     1  UNL1        0.1261
     12 C           6.3301   -4.0950    0.0000 C.3     1  UNL1        0.1465
     13 C           4.5981   -3.0950    0.0000 C.3     1  UNL1        0.0994
     14 C           6.3301   -3.0950    0.0000 C.3     1  UNL1        0.2308
     15 C           3.7320   -2.5950    0.0000 C.3     1  UNL1       -0.0350
     16 C           7.1962   -1.5950    0.0000 C.ar    1  UNL1        0.1240
     17 C           2.8660   -4.0950    0.0000 C.2     1  UNL1        0.3044
     18 C           8.0622   -1.0950    0.0000 C.ar    1  UNL1       -0.0195
     19 C           6.3301   -1.0950    0.0000 C.ar    1  UNL1       -0.0195
     20 C           2.0000   -4.5950    0.0000 C.3     1  UNL1        0.0332
     21 C           8.0622   -0.0950    0.0000 C.ar    1  UNL1       -0.0534
     22 C           6.3301   -0.0950    0.0000 C.ar    1  UNL1       -0.0534
     23 C           7.1962    0.4050    0.0000 C.ar    1  UNL1       -0.0260
     24 C           7.1962    1.4050    0.0000 C.3     1  UNL1        0.0648
     25 C           8.0622    2.9050    0.0000 C.2     1  UNL1        0.0717
     26 C           8.9282    3.4050    0.0000 C.2     1  UNL1        0.1827
     27 C           9.7942    4.9050    0.0000 C.3     1  UNL1        0.0875
     28 C           9.7942    5.9050    0.0000 C.3     1  UNL1       -0.0307
     29 H           4.0611   -3.7850    0.0000 H       1  UNL1        0.0787
     30 H           6.0010   -4.9050    0.0000 H       1  UNL1        0.0659
     31 H           6.8671   -3.7850    0.0000 H       1  UNL1        0.0683
     32 H           4.5981   -2.4750    0.0000 H       1  UNL1        0.0632
     33 H           6.3301   -2.4750    0.0000 H       1  UNL1        0.1084
     34 H           4.0420   -2.0581    0.0000 H       1  UNL1        0.0256
     35 H           3.1951   -2.2850    0.0000 H       1  UNL1        0.0256
     36 H           3.4220   -3.1319    0.0000 H       1  UNL1        0.0256
     37 H           6.0010   -5.9050    0.0000 H       1  UNL1        0.2101
     38 H           7.7331   -4.2850    0.0000 H       1  UNL1        0.2102
     39 H           8.5991   -1.4050    0.0000 H       1  UNL1        0.0654
     40 H           5.7932   -1.4050    0.0000 H       1  UNL1        0.0654
     41 H           1.6900   -4.0581    0.0000 H       1  UNL1        0.0342
     42 H           1.4631   -4.9050    0.0000 H       1  UNL1        0.0342
     43 H           2.3100   -5.1319    0.0000 H       1  UNL1        0.0342
     44 H           8.5991    0.2150    0.0000 H       1  UNL1        0.0622
     45 H           5.7932    0.2150    0.0000 H       1  UNL1        0.0622
     46 H           6.9841    1.9876    0.0000 H       1  UNL1        0.0558
     47 H           6.5856    1.2973    0.0000 H       1  UNL1        0.0558
     48 H           7.5252    3.2150    0.0000 H       1  UNL1        0.0868
     49 H          10.0063    4.3224    0.0000 H       1  UNL1        0.0694
     50 H          10.4048    5.0127    0.0000 H       1  UNL1        0.0694
     51 H          10.4142    5.9050    0.0000 H       1  UNL1        0.0262
     52 H           9.7942    6.5250    0.0000 H       1  UNL1        0.0262
     53 H           9.1742    5.9050    0.0000 H       1  UNL1        0.0262
@<TRIPOS>BOND
     1     1    26    2
     2     2    13    1
     3     2    14    1
     4    10     3    1
     5     3    17    1
     6    11     4    1
     7     4    37    1
     8    14     5    1
     9     5    16    1
    10    12     6    1
    11     6    38    1
    12     7    17    2
    13     8    26    1
    14     8    27    1
    15     9    24    1
    16     9    25    2
    17    10    11    1
    18    10    13    1
    19    10    29    1
    20    11    12    1
    21    11    30    1
    22    12    14    1
    23    12    31    1
    24    13    15    1
    25    13    32    1
    26    14    33    1
    27    15    34    1
    28    15    35    1
    29    15    36    1
    30    16    18   ar
    31    16    19   ar
    32    17    20    1
    33    18    21   ar
    34    18    39    1
    35    19    22   ar
    36    19    40    1
    37    20    41    1
    38    20    42    1
    39    20    43    1
    40    21    23   ar
    41    21    44    1
    42    22    23   ar
    43    22    45    1
    44    23    24    1
    45    24    46    1
    46    24    47    1
    47    25    26    1
    48    25    48    1
    49    27    28    1
    50    27    49    1
    51    27    50    1
    52    28    51    1
    53    28    52    1
    54    28    53    1
