@<TRIPOS>MOLECULE
IMPHY005245
 29 29 0 0 0
SMALL
GASTEIGER

@<TRIPOS>ATOM
      1 N           5.4641   -0.5000    0.0000 N.3     1  UNL1       -0.3024
      2 C           4.5981    0.0000    0.0000 C.3     1  UNL1        0.0101
      3 C           4.5981    1.0000    0.0000 C.3     1  UNL1       -0.0373
      4 C           5.4641    1.5000    0.0000 C.3     1  UNL1       -0.0505
      5 C           6.3301    0.0000    0.0000 C.3     1  UNL1       -0.0011
      6 C           6.3301    1.0000    0.0000 C.3     1  UNL1       -0.0402
      7 C           3.7320   -0.5000    0.0000 C.3     1  UNL1       -0.0376
      8 C           2.8660    0.0000    0.0000 C.3     1  UNL1       -0.0545
      9 C           5.4641   -1.5000    0.0000 C.3     1  UNL1       -0.0125
     10 C           2.0000   -0.5000    0.0000 C.3     1  UNL1       -0.0652
     11 H           4.5981   -0.6200    0.0000 H       1  UNL1        0.0462
     12 H           4.3860    1.5826    0.0000 H       1  UNL1        0.0280
     13 H           3.9875    0.8923    0.0000 H       1  UNL1        0.0280
     14 H           5.8626    1.9750    0.0000 H       1  UNL1        0.0266
     15 H           5.0656    1.9750    0.0000 H       1  UNL1        0.0266
     16 H           6.5422   -0.5826    0.0000 H       1  UNL1        0.0426
     17 H           6.9407    0.1077    0.0000 H       1  UNL1        0.0426
     18 H           6.9407    0.8923    0.0000 H       1  UNL1        0.0278
     19 H           6.5422    1.5826    0.0000 H       1  UNL1        0.0278
     20 H           3.3335   -0.9749    0.0000 H       1  UNL1        0.0280
     21 H           4.1306   -0.9749    0.0000 H       1  UNL1        0.0280
     22 H           3.2646    0.4749    0.0000 H       1  UNL1        0.0263
     23 H           2.4675    0.4749    0.0000 H       1  UNL1        0.0263
     24 H           4.8441   -1.5000    0.0000 H       1  UNL1        0.0391
     25 H           5.4641   -2.1200    0.0000 H       1  UNL1        0.0391
     26 H           6.0841   -1.5000    0.0000 H       1  UNL1        0.0391
     27 H           1.6900    0.0369    0.0000 H       1  UNL1        0.0230
     28 H           1.4631   -0.8100    0.0000 H       1  UNL1        0.0230
     29 H           2.3100   -1.0369    0.0000 H       1  UNL1        0.0230
@<TRIPOS>BOND
     1     1     2    1
     2     1     5    1
     3     1     9    1
     4     2     3    1
     5     2     7    1
     6     2    11    1
     7     3     4    1
     8     3    12    1
     9     3    13    1
    10     4     6    1
    11     4    14    1
    12     4    15    1
    13     5     6    1
    14     5    16    1
    15     5    17    1
    16     6    18    1
    17     6    19    1
    18     7     8    1
    19     7    20    1
    20     7    21    1
    21     8    10    1
    22     8    22    1
    23     8    23    1
    24     9    24    1
    25     9    25    1
    26     9    26    1
    27    10    27    1
    28    10    28    1
    29    10    29    1
