@<TRIPOS>MOLECULE
IMPHY017353
 14 14 0 0 0
SMALL
GASTEIGER

@<TRIPOS>ATOM
      1 O           2.8090   -1.1739    0.0000 O.3     1  UNL1       -0.3715
      2 C           3.3090    0.3649    0.0000 C.2     1  UNL1       -0.0491
      3 C           3.6180   -0.5861    0.0000 C.3     1  UNL1        0.0690
      4 C           2.0000   -0.5861    0.0000 C.3     1  UNL1        0.0666
      5 C           2.3090    0.3649    0.0000 C.2     1  UNL1       -0.0575
      6 C           3.8968    1.1739    0.0000 C.3     1  UNL1       -0.0416
      7 H           3.9280   -1.1231    0.0000 H       1  UNL1        0.0607
      8 H           4.1844   -0.3340    0.0000 H       1  UNL1        0.0607
      9 H           1.4336   -0.3340    0.0000 H       1  UNL1        0.0604
     10 H           1.6900   -1.1231    0.0000 H       1  UNL1        0.0604
     11 H           1.9446    0.8665    0.0000 H       1  UNL1        0.0595
     12 H           4.3984    0.8095    0.0000 H       1  UNL1        0.0275
     13 H           4.2612    1.6755    0.0000 H       1  UNL1        0.0275
     14 H           3.3952    1.5384    0.0000 H       1  UNL1        0.0275
@<TRIPOS>BOND
     1     1     3    1
     2     1     4    1
     3     2     3    1
     4     2     5    2
     5     2     6    1
     6     3     7    1
     7     3     8    1
     8     4     5    1
     9     4     9    1
    10     4    10    1
    11     5    11    1
    12     6    12    1
    13     6    13    1
    14     6    14    1
