@<TRIPOS>MOLECULE
IMPHY012873
 60 64 0 0 0
SMALL
GASTEIGER

@<TRIPOS>ATOM
      1 O           6.0682   -1.9184    0.0000 O.2     1  UNL1       -0.4623
      2 O           9.5323    0.0816    0.0000 O.2     1  UNL1       -0.2913
      3 O           5.7262    1.0213    0.0000 O.2     1  UNL1       -0.2867
      4 O          10.3984   -1.4184    0.0000 O.3     1  UNL1       -0.5059
      5 O          11.2644    3.0816    0.0000 O.3     1  UNL1       -0.5068
      6 O           5.2292    4.1458    0.0000 O.3     1  UNL1       -0.5068
      7 O           2.5381   -1.9425    0.0000 O.3     1  UNL1       -0.5066
      8 O           8.6663   -4.4184    0.0000 O.3     1  UNL1       -0.5066
      9 C           7.8003    1.0816    0.0000 C.3     1  UNL1        0.0233
     10 C           7.8003    0.0816    0.0000 C.3     1  UNL1        0.0645
     11 C           6.9343   -0.4184    0.0000 C.ar    1  UNL1        0.0461
     12 C           8.6663    1.5816    0.0000 C.ar    1  UNL1       -0.0387
     13 C           7.1575    1.8476    0.0000 C.ar    1  UNL1       -0.0387
     14 C           8.6663   -0.4184    0.0000 C.2     1  UNL1        0.1751
     15 C           6.0682    0.0816    0.0000 C.ar    1  UNL1        0.1963
     16 C           8.6663   -1.4184    0.0000 C.ar    1  UNL1        0.0596
     17 C           9.5323    1.0816    0.0000 C.ar    1  UNL1       -0.0545
     18 C           7.4995    2.7873    0.0000 C.ar    1  UNL1       -0.0545
     19 C           8.6663    2.5816    0.0000 C.ar    1  UNL1       -0.0545
     20 C           6.1727    1.6741    0.0000 C.ar    1  UNL1       -0.0545
     21 C           6.9343   -1.4184    0.0000 C.ar    1  UNL1        0.1000
     22 C           5.2022   -0.4184    0.0000 C.ar    1  UNL1        0.0645
     23 C           5.2022   -1.4184    0.0000 C.ar    1  UNL1        0.1418
     24 C          10.3984    1.5816    0.0000 C.ar    1  UNL1       -0.0199
     25 C           6.8568    3.5534    0.0000 C.ar    1  UNL1       -0.0199
     26 C           9.5323    3.0816    0.0000 C.ar    1  UNL1       -0.0199
     27 C           5.5299    2.4400    0.0000 C.ar    1  UNL1       -0.0199
     28 C           9.5323   -1.9184    0.0000 C.ar    1  UNL1        0.1308
     29 C           7.8003   -1.9184    0.0000 C.ar    1  UNL1       -0.0443
     30 C          10.3984    2.5816    0.0000 C.ar    1  UNL1        0.1169
     31 C           5.8719    3.3797    0.0000 C.ar    1  UNL1        0.1169
     32 C           4.3083    0.1163    0.0000 C.ar    1  UNL1       -0.0439
     33 C           4.3083   -1.9530    0.0000 C.ar    1  UNL1        0.0228
     34 C           9.5323   -2.9184    0.0000 C.ar    1  UNL1        0.0220
     35 C           7.8003   -2.9184    0.0000 C.ar    1  UNL1       -0.0193
     36 C           3.4022   -0.3976    0.0000 C.ar    1  UNL1       -0.0193
     37 C           3.4022   -1.4392    0.0000 C.ar    1  UNL1        0.1204
     38 C           8.6663   -3.4184    0.0000 C.ar    1  UNL1        0.1204
     39 H           7.2177    0.8696    0.0000 H       1  UNL1        0.0407
     40 H           8.3372    0.3916    0.0000 H       1  UNL1        0.0441
     41 H           9.5323    0.4616    0.0000 H       1  UNL1        0.0622
     42 H           8.1101    2.8950    0.0000 H       1  UNL1        0.0622
     43 H           8.1294    2.8916    0.0000 H       1  UNL1        0.0622
     44 H           5.9607    1.0915    0.0000 H       1  UNL1        0.0622
     45 H           7.4712   -1.7284    0.0000 H       1  UNL1        0.1034
     46 H          10.9353    1.2716    0.0000 H       1  UNL1        0.0654
     47 H           7.0688    4.1360    0.0000 H       1  UNL1        0.0654
     48 H           9.5323    3.7016    0.0000 H       1  UNL1        0.0654
     49 H           4.9193    2.3324    0.0000 H       1  UNL1        0.0654
     50 H           7.2634   -1.6084    0.0000 H       1  UNL1        0.0627
     51 H           4.3154    0.7362    0.0000 H       1  UNL1        0.0627
     52 H           4.3154   -2.5730    0.0000 H       1  UNL1        0.0691
     53 H          10.0693   -3.2284    0.0000 H       1  UNL1        0.0691
     54 H           7.2634   -3.2284    0.0000 H       1  UNL1        0.0654
     55 H           2.8665   -0.0855    0.0000 H       1  UNL1        0.0654
     56 H          10.9353   -1.7284    0.0000 H       1  UNL1        0.2922
     57 H          11.2644    3.7016    0.0000 H       1  UNL1        0.2921
     58 H           5.4412    4.7284    0.0000 H       1  UNL1        0.2921
     59 H           2.0000   -1.6346    0.0000 H       1  UNL1        0.2921
     60 H           9.2033   -4.7284    0.0000 H       1  UNL1        0.2921
@<TRIPOS>BOND
     1     1    21   ar
     2     1    23   ar
     3     2    14    2
     4     3    15    2
     5     4    28    1
     6     4    56    1
     7     5    30    1
     8     5    57    1
     9     6    31    1
    10     6    58    1
    11     7    37    1
    12     7    59    1
    13     8    38    1
    14     8    60    1
    15     9    10    1
    16     9    12    1
    17     9    13    1
    18     9    39    1
    19    10    11    1
    20    10    14    1
    21    10    40    1
    22    11    15   ar
    23    11    21   ar
    24    12    17   ar
    25    12    19   ar
    26    13    18   ar
    27    13    20   ar
    28    14    16    1
    29    15    22   ar
    30    16    28   ar
    31    16    29   ar
    32    17    24   ar
    33    17    41    1
    34    18    25   ar
    35    18    42    1
    36    19    26   ar
    37    19    43    1
    38    20    27   ar
    39    20    44    1
    40    21    45    1
    41    22    23   ar
    42    22    32   ar
    43    23    33   ar
    44    24    30   ar
    45    24    46    1
    46    25    31   ar
    47    25    47    1
    48    26    30   ar
    49    26    48    1
    50    27    31   ar
    51    27    49    1
    52    28    34   ar
    53    29    35   ar
    54    29    50    1
    55    32    36   ar
    56    32    51    1
    57    33    37   ar
    58    33    52    1
    59    34    38   ar
    60    34    53    1
    61    35    38   ar
    62    35    54    1
    63    36    37   ar
    64    36    55    1
