@<TRIPOS>MOLECULE
IMPHY010282
 102 108 0 0 0
SMALL
GASTEIGER

@<TRIPOS>ATOM
      1 O          11.2303    2.1646    0.0000 O.3     1  UNL1       -0.3877
      2 O          11.2542   -0.9113    0.0000 O.3     1  UNL1       -0.3875
      3 O           9.4651   -3.0390    0.0000 O.3     1  UNL1       -0.3453
      4 O           7.7580    0.1230    0.0000 O.2     1  UNL1       -0.3003
      5 O           8.3679    6.3490    0.0000 O.3     1  UNL1       -0.4571
      6 O           7.7331   -3.0390    0.0000 O.3     1  UNL1       -0.3431
      7 O           6.6476    5.8841    0.0000 O.2     1  UNL1       -0.2456
      8 O           9.4651   -5.0390    0.0000 O.3     1  UNL1       -0.3841
      9 O           7.7331   -6.0390    0.0000 O.3     1  UNL1       -0.3864
     10 O           6.0010   -5.0390    0.0000 O.3     1  UNL1       -0.3402
     11 O           5.1350   -3.5390    0.0000 O.3     1  UNL1       -0.3405
     12 O           4.2690   -6.0390    0.0000 O.3     1  UNL1       -0.3841
     13 O           2.5369   -5.0390    0.0000 O.3     1  UNL1       -0.3864
     14 O           2.5369   -3.0390    0.0000 O.3     1  UNL1       -0.3865
     15 O           5.1350   -1.5390    0.0000 O.3     1  UNL1       -0.3924
     16 C          10.3623    2.6612    0.0000 C.3     1  UNL1        0.0751
     17 C          10.3662    1.6612    0.0000 C.3     1  UNL1       -0.0077
     18 C           9.4944    3.1579    0.0000 C.3     1  UNL1        0.0036
     19 C           9.5021    1.1579    0.0000 C.3     1  UNL1       -0.0208
     20 C           9.4901    0.1163    0.0000 C.3     1  UNL1        0.0579
     21 C          10.3901   -0.4079    0.0000 C.3     1  UNL1        0.0807
     22 C           9.6999    4.1305    0.0000 C.3     1  UNL1       -0.0081
     23 C           8.6303    2.6546    0.0000 C.3     1  UNL1       -0.0442
     24 C           8.6342    1.6546    0.0000 C.3     1  UNL1       -0.0483
     25 C          11.0968    3.3312    0.0000 C.3     1  UNL1       -0.0226
     26 C          11.2781    1.1579    0.0000 C.3     1  UNL1       -0.0447
     27 C          11.2902    0.1163    0.0000 C.3     1  UNL1       -0.0226
     28 C          10.6882    4.2374    0.0000 C.3     1  UNL1       -0.0432
     29 C           8.5402   -0.4079    0.0000 C.3     1  UNL1       -0.0357
     30 C          10.4027   -1.4929    0.0000 C.3     1  UNL1        0.0034
     31 C           8.6264    3.6546    0.0000 C.3     1  UNL1       -0.0564
     32 C           8.5276   -1.4929    0.0000 C.3     1  UNL1       -0.0254
     33 C           9.4651   -2.0390    0.0000 C.3     1  UNL1        0.0645
     34 C           8.6260    0.6197    0.0000 C.2     1  UNL1        0.1294
     35 C           9.0292    4.8722    0.0000 C.2     1  UNL1       -0.0222
     36 C           9.2350    5.8508    0.0000 C.3     1  UNL1        0.1147
     37 C           8.0348    4.7656    0.0000 C.2     1  UNL1        0.0252
     38 C           8.5991   -3.5390    0.0000 C.3     1  UNL1        0.1881
     39 C           7.6262    5.6783    0.0000 C.2     1  UNL1        0.3323
     40 C           8.5991   -4.5390    0.0000 C.3     1  UNL1        0.1341
     41 C           7.7331   -5.0390    0.0000 C.3     1  UNL1        0.1143
     42 C           6.8671   -3.5390    0.0000 C.3     1  UNL1        0.0877
     43 C           6.8671   -4.5390    0.0000 C.3     1  UNL1        0.1160
     44 C           6.0010   -3.0390    0.0000 C.3     1  UNL1       -0.0361
     45 C           5.1350   -4.5390    0.0000 C.3     1  UNL1        0.1884
     46 C           4.2690   -5.0390    0.0000 C.3     1  UNL1        0.1341
     47 C           3.4030   -4.5390    0.0000 C.3     1  UNL1        0.1141
     48 C           4.2690   -3.0390    0.0000 C.3     1  UNL1        0.1130
     49 C           3.4030   -3.5390    0.0000 C.3     1  UNL1        0.1119
     50 C           4.2690   -2.0390    0.0000 C.3     1  UNL1        0.0730
     51 H          11.0974    2.0947    0.0000 H       1  UNL1        0.0332
     52 H          10.2366    0.7301    0.0000 H       1  UNL1        0.0315
     53 H           9.9206    4.7099    0.0000 H       1  UNL1        0.0353
     54 H           8.4160    3.2364    0.0000 H       1  UNL1        0.0272
     55 H           8.0201    2.5446    0.0000 H       1  UNL1        0.0272
     56 H           8.0232    1.7599    0.0000 H       1  UNL1        0.0269
     57 H           8.4244    1.0711    0.0000 H       1  UNL1        0.0269
     58 H          11.4642    2.8317    0.0000 H       1  UNL1        0.0293
     59 H          11.6321    3.6440    0.0000 H       1  UNL1        0.0293
     60 H          11.8902    1.0589    0.0000 H       1  UNL1        0.0270
     61 H          11.4804    1.7440    0.0000 H       1  UNL1        0.0270
     62 H          11.5060   -0.4649    0.0000 H       1  UNL1        0.0293
     63 H          11.8998    0.2295    0.0000 H       1  UNL1        0.0293
     64 H          11.2770    4.4314    0.0000 H       1  UNL1        0.0272
     65 H          10.5571    4.8434    0.0000 H       1  UNL1        0.0272
     66 H           8.3379    0.1781    0.0000 H       1  UNL1        0.0276
     67 H           7.9281   -0.5070    0.0000 H       1  UNL1        0.0276
     68 H          10.6185   -2.0741    0.0000 H       1  UNL1        0.0318
     69 H          11.0123   -1.3797    0.0000 H       1  UNL1        0.0318
     70 H           8.9344    4.1927    0.0000 H       1  UNL1        0.0236
     71 H           8.0883    3.9625    0.0000 H       1  UNL1        0.0236
     72 H           8.3185    3.1164    0.0000 H       1  UNL1        0.0236
     73 H           7.9180   -1.3797    0.0000 H       1  UNL1        0.0290
     74 H           8.3118   -2.0741    0.0000 H       1  UNL1        0.0290
     75 H          10.0027   -2.3479    0.0000 H       1  UNL1        0.0598
     76 H          11.7660    2.4766    0.0000 H       1  UNL1        0.2102
     77 H           8.0902    0.9318    0.0000 H       1  UNL1        0.1033
     78 H          11.7923   -0.6033    0.0000 H       1  UNL1        0.2102
     79 H           9.8250    5.6605    0.0000 H       1  UNL1        0.0746
     80 H           9.4860    6.4178    0.0000 H       1  UNL1        0.0746
     81 H           7.7260    4.2280    0.0000 H       1  UNL1        0.0689
     82 H           8.5991   -2.9190    0.0000 H       1  UNL1        0.0937
     83 H           8.5991   -5.1590    0.0000 H       1  UNL1        0.0671
     84 H           7.1962   -5.3490    0.0000 H       1  UNL1        0.0648
     85 H           6.8671   -2.9190    0.0000 H       1  UNL1        0.0621
     86 H           6.3301   -4.2290    0.0000 H       1  UNL1        0.0650
     87 H          10.0021   -4.7290    0.0000 H       1  UNL1        0.2101
     88 H           6.3110   -2.5020    0.0000 H       1  UNL1        0.0255
     89 H           5.4641   -2.7290    0.0000 H       1  UNL1        0.0255
     90 H           5.6910   -3.5759    0.0000 H       1  UNL1        0.0255
     91 H           8.2700   -6.3490    0.0000 H       1  UNL1        0.2100
     92 H           5.1350   -5.1590    0.0000 H       1  UNL1        0.0938
     93 H           3.7320   -5.3490    0.0000 H       1  UNL1        0.0671
     94 H           2.8660   -4.2290    0.0000 H       1  UNL1        0.0648
     95 H           4.8059   -2.7290    0.0000 H       1  UNL1        0.0647
     96 H           3.4030   -2.9190    0.0000 H       1  UNL1        0.0647
     97 H           3.7320   -6.3490    0.0000 H       1  UNL1        0.2101
     98 H           4.0569   -1.4564    0.0000 H       1  UNL1        0.0584
     99 H           3.6584   -2.1466    0.0000 H       1  UNL1        0.0584
    100 H           2.0000   -4.7290    0.0000 H       1  UNL1        0.2100
    101 H           2.5369   -2.4190    0.0000 H       1  UNL1        0.2100
    102 H           5.1350   -0.9190    0.0000 H       1  UNL1        0.2095
@<TRIPOS>BOND
     1    16     1    1
     2     1    76    1
     3    21     2    1
     4     2    78    1
     5    33     3    1
     6    38     3    1
     7     4    34    2
     8     5    36    1
     9     5    39    1
    10     6    38    1
    11     6    42    1
    12     7    39    2
    13    40     8    1
    14     8    87    1
    15    41     9    1
    16     9    91    1
    17    43    10    1
    18    45    10    1
    19    11    45    1
    20    11    48    1
    21    46    12    1
    22    12    97    1
    23    47    13    1
    24    13   100    1
    25    49    14    1
    26    14   101    1
    27    15    50    1
    28    15   102    1
    29    16    17    1
    30    16    18    1
    31    16    25    1
    32    17    19    1
    33    17    26    1
    34    17    51    1
    35    18    22    1
    36    18    23    1
    37    18    31    1
    38    19    20    1
    39    19    24    1
    40    19    52    1
    41    20    21    1
    42    20    29    1
    43    20    34    1
    44    21    27    1
    45    21    30    1
    46    22    28    1
    47    22    35    1
    48    22    53    1
    49    23    24    1
    50    23    54    1
    51    23    55    1
    52    24    56    1
    53    24    57    1
    54    25    28    1
    55    25    58    1
    56    25    59    1
    57    26    27    1
    58    26    60    1
    59    26    61    1
    60    27    62    1
    61    27    63    1
    62    28    64    1
    63    28    65    1
    64    29    32    1
    65    29    66    1
    66    29    67    1
    67    30    33    1
    68    30    68    1
    69    30    69    1
    70    31    70    1
    71    31    71    1
    72    31    72    1
    73    32    33    1
    74    32    73    1
    75    32    74    1
    76    33    75    1
    77    34    77    1
    78    35    36    1
    79    35    37    2
    80    36    79    1
    81    36    80    1
    82    37    39    1
    83    37    81    1
    84    38    40    1
    85    38    82    1
    86    40    41    1
    87    40    83    1
    88    41    43    1
    89    41    84    1
    90    42    43    1
    91    42    44    1
    92    42    85    1
    93    43    86    1
    94    44    88    1
    95    44    89    1
    96    44    90    1
    97    45    46    1
    98    45    92    1
    99    46    47    1
   100    46    93    1
   101    47    49    1
   102    47    94    1
   103    48    49    1
   104    48    50    1
   105    48    95    1
   106    49    96    1
   107    50    98    1
   108    50    99    1
