@<TRIPOS>MOLECULE
IMPHY012066
 15 15 0 0 0
SMALL
GASTEIGER

@<TRIPOS>ATOM
      1 O           2.5369    0.2500    0.0000 O.3     1  UNL1       -0.5013
      2 O           5.1350    1.7500    0.0000 O.co2   1  UNL1       -0.5759
      3 O           3.4030    1.7500    0.0000 O.2     1  UNL1        0.0416
      4 N           4.2690    1.2500    0.0000 N.pl3   1  UNL1        0.0834
      5 C           4.2690    0.2500    0.0000 C.ar    1  UNL1        0.3140
      6 C           3.4030   -0.2500    0.0000 C.ar    1  UNL1        0.1947
      7 C           5.1350   -0.2500    0.0000 C.ar    1  UNL1        0.0194
      8 C           3.4030   -1.2500    0.0000 C.ar    1  UNL1       -0.0134
      9 C           5.1350   -1.2500    0.0000 C.ar    1  UNL1       -0.0551
     10 C           4.2690   -1.7500    0.0000 C.ar    1  UNL1       -0.0579
     11 H           5.6720    0.0600    0.0000 H       1  UNL1        0.0686
     12 H           2.8660   -1.5600    0.0000 H       1  UNL1        0.0656
     13 H           5.6720   -1.5600    0.0000 H       1  UNL1        0.0620
     14 H           4.2690   -2.3700    0.0000 H       1  UNL1        0.0619
     15 H           2.0000   -0.0600    0.0000 H       1  UNL1        0.2924
@<TRIPOS>UNITY_ATOM_ATTR
2 1
charge -1
4 1
charge 1
@<TRIPOS>BOND
     1     1     6    1
     2     1    15    1
     3     2     4    1
     4     3     4    2
     5     4     5    1
     6     5     6   ar
     7     5     7   ar
     8     6     8   ar
     9     7     9   ar
    10     7    11    1
    11     8    10   ar
    12     8    12    1
    13     9    10   ar
    14     9    13    1
    15    10    14    1
