@<TRIPOS>MOLECULE
IMPHY001120
 81 85 0 0 0
SMALL
GASTEIGER

@<TRIPOS>ATOM
      1 O           2.5357   -2.9187    0.0000 O.3     1  UNL1       -0.3912
      2 O           8.6626    3.3742    0.0000 O.3     1  UNL1       -0.3918
      3 C           7.9288   -0.8664    0.0000 C.3     1  UNL1       -0.0233
      4 C           7.0628   -1.3664    0.0000 C.3     1  UNL1       -0.0231
      5 C           7.9288    0.1336    0.0000 C.3     1  UNL1       -0.0315
      6 C           6.1968   -0.8664    0.0000 C.3     1  UNL1       -0.0294
      7 C           8.8228    0.6683    0.0000 C.3     1  UNL1       -0.0271
      8 C           5.2868   -1.3732    0.0000 C.3     1  UNL1       -0.0252
      9 C           9.7288    0.1544    0.0000 C.3     1  UNL1       -0.0286
     10 C           5.2787   -2.4148    0.0000 C.3     1  UNL1       -0.0278
     11 C           8.8228   -1.4010    0.0000 C.3     1  UNL1       -0.0464
     12 C           7.0789   -2.4079    0.0000 C.3     1  UNL1       -0.0466
     13 C           7.0628    0.6336    0.0000 C.3     1  UNL1       -0.0491
     14 C           6.1968    0.1336    0.0000 C.3     1  UNL1       -0.0489
     15 C           9.7288   -0.8872    0.0000 C.3     1  UNL1       -0.0468
     16 C           9.0329    1.6822    0.0000 C.3     1  UNL1       -0.0116
     17 C           6.1808   -2.9356    0.0000 C.3     1  UNL1       -0.0486
     18 C           4.3433   -2.9645    0.0000 C.3     1  UNL1       -0.0056
     19 C          10.4911    0.8552    0.0000 C.3     1  UNL1       -0.0470
     20 C           4.3599   -0.8091    0.0000 C.3     1  UNL1       -0.0447
     21 C           8.2709   -1.8060    0.0000 C.3     1  UNL1       -0.0588
     22 C           7.7056   -2.1324    0.0000 C.3     1  UNL1       -0.0588
     23 C          10.0619    1.7975    0.0000 C.3     1  UNL1       -0.0471
     24 C           5.2945   -0.3732    0.0000 C.3     1  UNL1       -0.0590
     25 C           3.4037   -2.4220    0.0000 C.3     1  UNL1        0.0606
     26 C          10.5987   -0.3389    0.0000 C.3     1  UNL1       -0.0593
     27 C           3.4120   -1.3371    0.0000 C.3     1  UNL1       -0.0258
     28 C           8.3593    2.4213    0.0000 C.3     1  UNL1        0.0555
     29 C           3.8467   -3.8325    0.0000 C.3     1  UNL1       -0.0572
     30 C           4.8466   -3.8286    0.0000 C.3     1  UNL1       -0.0572
     31 C           7.3824    2.2076    0.0000 C.3     1  UNL1       -0.0387
     32 H           7.9223    0.9836    0.0000 H       1  UNL1        0.0309
     33 H           6.9329   -0.4414    0.0000 H       1  UNL1        0.0312
     34 H           8.1300    1.1608    0.0000 H       1  UNL1        0.0312
     35 H           5.2820   -3.2648    0.0000 H       1  UNL1        0.0312
     36 H           8.4182   -1.8708    0.0000 H       1  UNL1        0.0271
     37 H           9.2164   -1.8800    0.0000 H       1  UNL1        0.0271
     38 H           7.2969   -2.9883    0.0000 H       1  UNL1        0.0271
     39 H           7.6880   -2.2924    0.0000 H       1  UNL1        0.0271
     40 H           7.4613    1.1086    0.0000 H       1  UNL1        0.0268
     41 H           6.6643    1.1086    0.0000 H       1  UNL1        0.0268
     42 H           5.9847    0.7162    0.0000 H       1  UNL1        0.0268
     43 H           5.5862    0.0260    0.0000 H       1  UNL1        0.0268
     44 H           9.9379   -1.4709    0.0000 H       1  UNL1        0.0271
     45 H          10.3397   -0.7811    0.0000 H       1  UNL1        0.0271
     46 H           9.2513    2.2624    0.0000 H       1  UNL1        0.0328
     47 H           5.7835   -3.4116    0.0000 H       1  UNL1        0.0268
     48 H           6.5818   -3.4085    0.0000 H       1  UNL1        0.0268
     49 H          10.8604    0.3572    0.0000 H       1  UNL1        0.0271
     50 H          11.0252    1.1701    0.0000 H       1  UNL1        0.0271
     51 H           4.7681   -0.3425    0.0000 H       1  UNL1        0.0271
     52 H           3.9700   -0.3271    0.0000 H       1  UNL1        0.0271
     53 H           7.6884   -2.0181    0.0000 H       1  UNL1        0.0235
     54 H           8.4830   -2.3886    0.0000 H       1  UNL1        0.0235
     55 H           8.8535   -1.5939    0.0000 H       1  UNL1        0.0235
     56 H           7.2306   -2.5309    0.0000 H       1  UNL1        0.0235
     57 H           8.1041   -2.6074    0.0000 H       1  UNL1        0.0235
     58 H           8.1805   -1.7339    0.0000 H       1  UNL1        0.0235
     59 H          10.6500    1.9938    0.0000 H       1  UNL1        0.0269
     60 H           9.9285    2.4030    0.0000 H       1  UNL1        0.0269
     61 H           5.9145   -0.3780    0.0000 H       1  UNL1        0.0235
     62 H           5.2993    0.2467    0.0000 H       1  UNL1        0.0235
     63 H           4.6745   -0.3685    0.0000 H       1  UNL1        0.0235
     64 H           3.4025   -3.0420    0.0000 H       1  UNL1        0.0599
     65 H          10.2928   -0.8782    0.0000 H       1  UNL1        0.0235
     66 H          11.1380   -0.6447    0.0000 H       1  UNL1        0.0235
     67 H          10.9045    0.2004    0.0000 H       1  UNL1        0.0235
     68 H           3.2075   -0.7518    0.0000 H       1  UNL1        0.0290
     69 H           2.8004   -1.4385    0.0000 H       1  UNL1        0.0290
     70 H           7.9417    2.8796    0.0000 H       1  UNL1        0.0593
     71 H           3.3085   -3.5246    0.0000 H       1  UNL1        0.0236
     72 H           4.3109   -4.1407    0.0000 H       1  UNL1        0.0236
     73 H           5.1587   -4.3644    0.0000 H       1  UNL1        0.0236
     74 H           3.5387   -4.3706    0.0000 H       1  UNL1        0.0236
     75 H           4.3848   -4.1404    0.0000 H       1  UNL1        0.0236
     76 H           5.3824   -3.5166    0.0000 H       1  UNL1        0.0236
     77 H           7.2499    2.8133    0.0000 H       1  UNL1        0.0255
     78 H           6.7768    2.0751    0.0000 H       1  UNL1        0.0255
     79 H           7.5150    1.6019    0.0000 H       1  UNL1        0.0255
     80 H           2.0000   -2.6066    0.0000 H       1  UNL1        0.2098
     81 H           8.2450    3.8325    0.0000 H       1  UNL1        0.2098
@<TRIPOS>BOND
     1    25     1    1
     2     1    80    1
     3     2    28    1
     4     2    81    1
     5     3     4    1
     6     3     5    1
     7     3    11    1
     8     3    21    1
     9     4     6    1
    10     4    12    1
    11     4    22    1
    12     5     7    1
    13     5    13    1
    14     5    32    1
    15     6     8    1
    16     6    14    1
    17     6    33    1
    18     7     9    1
    19     7    16    1
    20     7    34    1
    21     8    10    1
    22     8    20    1
    23     8    24    1
    24     9    15    1
    25     9    19    1
    26     9    26    1
    27    10    17    1
    28    10    18    1
    29    10    35    1
    30    11    15    1
    31    11    36    1
    32    11    37    1
    33    12    17    1
    34    12    38    1
    35    12    39    1
    36    13    14    1
    37    13    40    1
    38    13    41    1
    39    14    42    1
    40    14    43    1
    41    15    44    1
    42    15    45    1
    43    16    23    1
    44    16    28    1
    45    16    46    1
    46    17    47    1
    47    17    48    1
    48    18    25    1
    49    18    29    1
    50    18    30    1
    51    19    23    1
    52    19    49    1
    53    19    50    1
    54    20    27    1
    55    20    51    1
    56    20    52    1
    57    21    53    1
    58    21    54    1
    59    21    55    1
    60    22    56    1
    61    22    57    1
    62    22    58    1
    63    23    59    1
    64    23    60    1
    65    24    61    1
    66    24    62    1
    67    24    63    1
    68    25    27    1
    69    25    64    1
    70    26    65    1
    71    26    66    1
    72    26    67    1
    73    27    68    1
    74    27    69    1
    75    28    31    1
    76    28    70    1
    77    29    71    1
    78    29    74    1
    79    29    75    1
    80    30    72    1
    81    30    73    1
    82    30    76    1
    83    31    77    1
    84    31    78    1
    85    31    79    1
