@<TRIPOS>MOLECULE
IMPHY010281
 81 84 0 0 0
SMALL
GASTEIGER

@<TRIPOS>ATOM
      1 O           2.5357   -3.6598    0.0000 O.3     1  UNL1       -0.3918
      2 O          10.8321    0.1097    0.0000 O.3     1  UNL1       -0.3890
      3 O           9.8070    2.5489    0.0000 O.3     1  UNL1       -0.3890
      4 C           7.9288   -0.6074    0.0000 C.3     1  UNL1       -0.0258
      5 C           7.9288   -1.6074    0.0000 C.3     1  UNL1       -0.0323
      6 C           7.0628   -2.1074    0.0000 C.3     1  UNL1       -0.0344
      7 C           6.1968   -1.6074    0.0000 C.3     1  UNL1       -0.0323
      8 C           5.2868   -2.1143    0.0000 C.3     1  UNL1       -0.0260
      9 C           8.8750   -0.3027    0.0000 C.3     1  UNL1       -0.0304
     10 C           7.0628   -0.1074    0.0000 C.3     1  UNL1       -0.0468
     11 C           5.2787   -3.1559    0.0000 C.3     1  UNL1       -0.0330
     12 C           6.1968   -0.6074    0.0000 C.3     1  UNL1       -0.0489
     13 C           8.8750   -1.9122    0.0000 C.3     1  UNL1       -0.0492
     14 C           7.0789   -3.1489    0.0000 C.3     1  UNL1       -0.0494
     15 C           9.4586   -1.1074    0.0000 C.3     1  UNL1       -0.0491
     16 C           6.1808   -3.6767    0.0000 C.3     1  UNL1       -0.0494
     17 C           4.3599   -1.5502    0.0000 C.3     1  UNL1       -0.0448
     18 C           7.9288    0.3926    0.0000 C.3     1  UNL1       -0.0590
     19 C           9.1857    0.6478    0.0000 C.3     1  UNL1       -0.0120
     20 C           4.3433   -3.7056    0.0000 C.3     1  UNL1       -0.0235
     21 C           5.2945   -1.1143    0.0000 C.3     1  UNL1       -0.0590
     22 C           3.4120   -2.0781    0.0000 C.3     1  UNL1       -0.0263
     23 C           3.4037   -3.1631    0.0000 C.3     1  UNL1        0.0555
     24 C          10.1642    0.8540    0.0000 C.3     1  UNL1        0.0841
     25 C           8.5179    1.3921    0.0000 C.3     1  UNL1       -0.0597
     26 C          10.4749    1.8046    0.0000 C.3     1  UNL1        0.0841
     27 C          11.4534    2.0108    0.0000 C.3     1  UNL1       -0.0130
     28 C          11.7640    2.9613    0.0000 C.3     1  UNL1       -0.0417
     29 C          12.1212    1.2665    0.0000 C.3     1  UNL1       -0.0597
     30 C          12.7425    3.1675    0.0000 C.3     1  UNL1       -0.0623
     31 C          11.0962    3.7056    0.0000 C.3     1  UNL1       -0.0623
     32 H           8.0188   -2.4527    0.0000 H       1  UNL1        0.0309
     33 H           7.8022   -2.5267    0.0000 H       1  UNL1        0.0306
     34 H           6.9329   -1.1824    0.0000 H       1  UNL1        0.0309
     35 H           9.7148   -0.1708    0.0000 H       1  UNL1        0.0310
     36 H           7.4613    0.3675    0.0000 H       1  UNL1        0.0271
     37 H           6.6643    0.3675    0.0000 H       1  UNL1        0.0271
     38 H           5.9847   -0.0248    0.0000 H       1  UNL1        0.0268
     39 H           5.5862   -0.7151    0.0000 H       1  UNL1        0.0268
     40 H           5.2820   -4.0059    0.0000 H       1  UNL1        0.0307
     41 H           8.6240   -2.4791    0.0000 H       1  UNL1        0.0268
     42 H           9.4124   -2.2214    0.0000 H       1  UNL1        0.0268
     43 H           7.2969   -3.7293    0.0000 H       1  UNL1        0.0268
     44 H           7.6880   -3.0334    0.0000 H       1  UNL1        0.0268
     45 H           9.9195   -1.5222    0.0000 H       1  UNL1        0.0268
     46 H           9.9195   -0.6927    0.0000 H       1  UNL1        0.0268
     47 H           5.7835   -4.1527    0.0000 H       1  UNL1        0.0268
     48 H           6.5818   -4.1496    0.0000 H       1  UNL1        0.0268
     49 H           4.7681   -1.0835    0.0000 H       1  UNL1        0.0271
     50 H           3.9700   -1.0682    0.0000 H       1  UNL1        0.0271
     51 H           9.3783    1.2371    0.0000 H       1  UNL1        0.0327
     52 H           8.5488    0.3926    0.0000 H       1  UNL1        0.0235
     53 H           7.9288    1.0126    0.0000 H       1  UNL1        0.0235
     54 H           7.3088    0.3926    0.0000 H       1  UNL1        0.0235
     55 H           3.9460   -4.1816    0.0000 H       1  UNL1        0.0293
     56 H           4.7443   -4.1785    0.0000 H       1  UNL1        0.0293
     57 H           5.9145   -1.1191    0.0000 H       1  UNL1        0.0235
     58 H           5.2993   -0.4943    0.0000 H       1  UNL1        0.0235
     59 H           4.6745   -1.1095    0.0000 H       1  UNL1        0.0235
     60 H           3.2075   -1.4929    0.0000 H       1  UNL1        0.0290
     61 H           2.8004   -2.1795    0.0000 H       1  UNL1        0.0290
     62 H           3.4025   -3.7831    0.0000 H       1  UNL1        0.0593
     63 H           9.9716    0.2647    0.0000 H       1  UNL1        0.0622
     64 H           8.9793    1.8062    0.0000 H       1  UNL1        0.0233
     65 H           8.1038    1.8536    0.0000 H       1  UNL1        0.0233
     66 H           8.0564    0.9781    0.0000 H       1  UNL1        0.0233
     67 H          10.6675    2.3939    0.0000 H       1  UNL1        0.0622
     68 H           2.0000   -3.3477    0.0000 H       1  UNL1        0.2098
     69 H          12.0601    2.1386    0.0000 H       1  UNL1        0.0326
     70 H          11.4387    0.2376    0.0000 H       1  UNL1        0.2099
     71 H          11.9567    3.5506    0.0000 H       1  UNL1        0.0299
     72 H           9.9996    3.1382    0.0000 H       1  UNL1        0.2099
     73 H          11.6598    0.8524    0.0000 H       1  UNL1        0.0233
     74 H          12.5353    0.8050    0.0000 H       1  UNL1        0.0233
     75 H          12.5827    1.6805    0.0000 H       1  UNL1        0.0233
     76 H          11.5577    4.1197    0.0000 H       1  UNL1        0.0232
     77 H          10.6821    4.1671    0.0000 H       1  UNL1        0.0232
     78 H          10.6347    3.2915    0.0000 H       1  UNL1        0.0232
     79 H          12.8704    2.5608    0.0000 H       1  UNL1        0.0232
     80 H          13.3492    3.2954    0.0000 H       1  UNL1        0.0232
     81 H          12.6147    3.7742    0.0000 H       1  UNL1        0.0232
@<TRIPOS>BOND
     1    23     1    1
     2     1    68    1
     3    24     2    1
     4     2    70    1
     5    26     3    1
     6     3    72    1
     7     4     5    1
     8     4     9    1
     9     4    10    1
    10     4    18    1
    11     5     6    1
    12     5    13    1
    13     5    32    1
    14     6     7    1
    15     6    14    1
    16     6    33    1
    17     7     8    1
    18     7    12    1
    19     7    34    1
    20     8    11    1
    21     8    17    1
    22     8    21    1
    23     9    15    1
    24     9    19    1
    25     9    35    1
    26    10    12    1
    27    10    36    1
    28    10    37    1
    29    11    16    1
    30    11    20    1
    31    11    40    1
    32    12    38    1
    33    12    39    1
    34    13    15    1
    35    13    41    1
    36    13    42    1
    37    14    16    1
    38    14    43    1
    39    14    44    1
    40    15    45    1
    41    15    46    1
    42    16    47    1
    43    16    48    1
    44    17    22    1
    45    17    49    1
    46    17    50    1
    47    18    52    1
    48    18    53    1
    49    18    54    1
    50    19    24    1
    51    19    25    1
    52    19    51    1
    53    20    23    1
    54    20    55    1
    55    20    56    1
    56    21    57    1
    57    21    58    1
    58    21    59    1
    59    22    23    1
    60    22    60    1
    61    22    61    1
    62    23    62    1
    63    24    26    1
    64    24    63    1
    65    25    64    1
    66    25    65    1
    67    25    66    1
    68    26    27    1
    69    26    67    1
    70    27    28    1
    71    27    29    1
    72    27    69    1
    73    28    30    1
    74    28    31    1
    75    28    71    1
    76    29    73    1
    77    29    74    1
    78    29    75    1
    79    30    79    1
    80    30    80    1
    81    30    81    1
    82    31    76    1
    83    31    77    1
    84    31    78    1
