@<TRIPOS>MOLECULE
IMPHY005671
 40 39 0 0 0
SMALL
GASTEIGER

@<TRIPOS>ATOM
      1 O           7.1962    1.5000    0.0000 O.3     1  UNL1       -0.3513
      2 O           5.4641    1.5000    0.0000 O.3     1  UNL1       -0.3513
      3 C           6.3301    1.0000    0.0000 C.3     1  UNL1        0.1591
      4 C           6.3301    0.0000    0.0000 C.3     1  UNL1       -0.0018
      5 C           5.4641   -0.5000    0.0000 C.3     1  UNL1       -0.0513
      6 C           8.0622    1.0000    0.0000 C.3     1  UNL1        0.0506
      7 C           4.5981    1.0000    0.0000 C.3     1  UNL1        0.0506
      8 C           8.9282    1.5000    0.0000 C.3     1  UNL1       -0.0296
      9 C           3.7320    1.5000    0.0000 C.3     1  UNL1       -0.0296
     10 C           9.7942    1.0000    0.0000 C.3     1  UNL1       -0.0538
     11 C           2.8660    1.0000    0.0000 C.3     1  UNL1       -0.0538
     12 C           5.4641   -1.5000    0.0000 C.3     1  UNL1       -0.0651
     13 C          10.6603    1.5000    0.0000 C.3     1  UNL1       -0.0652
     14 C           2.0000    1.5000    0.0000 C.3     1  UNL1       -0.0652
     15 H           6.8671    0.6900    0.0000 H       1  UNL1        0.0909
     16 H           6.5422   -0.5826    0.0000 H       1  UNL1        0.0314
     17 H           6.9407    0.1077    0.0000 H       1  UNL1        0.0314
     18 H           5.2520    0.0826    0.0000 H       1  UNL1        0.0264
     19 H           4.8535   -0.6077    0.0000 H       1  UNL1        0.0264
     20 H           4.1996    0.5251    0.0000 H       1  UNL1        0.0561
     21 H           4.9966    0.5251    0.0000 H       1  UNL1        0.0561
     22 H           7.6636    0.5251    0.0000 H       1  UNL1        0.0561
     23 H           8.4607    0.5251    0.0000 H       1  UNL1        0.0561
     24 H           9.3267    1.9750    0.0000 H       1  UNL1        0.0287
     25 H           8.5297    1.9750    0.0000 H       1  UNL1        0.0287
     26 H           4.1306    1.9750    0.0000 H       1  UNL1        0.0287
     27 H           3.3335    1.9750    0.0000 H       1  UNL1        0.0287
     28 H           9.3957    0.5251    0.0000 H       1  UNL1        0.0263
     29 H          10.1928    0.5251    0.0000 H       1  UNL1        0.0263
     30 H           2.4675    0.5251    0.0000 H       1  UNL1        0.0263
     31 H           3.2646    0.5251    0.0000 H       1  UNL1        0.0263
     32 H           4.8441   -1.5000    0.0000 H       1  UNL1        0.0230
     33 H           5.4641   -2.1200    0.0000 H       1  UNL1        0.0230
     34 H           6.0841   -1.5000    0.0000 H       1  UNL1        0.0230
     35 H          10.9703    0.9631    0.0000 H       1  UNL1        0.0230
     36 H          11.1972    1.8100    0.0000 H       1  UNL1        0.0230
     37 H          10.3503    2.0369    0.0000 H       1  UNL1        0.0230
     38 H           2.3100    2.0369    0.0000 H       1  UNL1        0.0230
     39 H           1.4631    1.8100    0.0000 H       1  UNL1        0.0230
     40 H           1.6900    0.9631    0.0000 H       1  UNL1        0.0230
@<TRIPOS>BOND
     1     1     3    1
     2     1     6    1
     3     2     3    1
     4     2     7    1
     5     3     4    1
     6     3    15    1
     7     4     5    1
     8     4    16    1
     9     4    17    1
    10     5    12    1
    11     5    18    1
    12     5    19    1
    13     6     8    1
    14     6    22    1
    15     6    23    1
    16     7     9    1
    17     7    20    1
    18     7    21    1
    19     8    10    1
    20     8    24    1
    21     8    25    1
    22     9    11    1
    23     9    26    1
    24     9    27    1
    25    10    13    1
    26    10    28    1
    27    10    29    1
    28    11    14    1
    29    11    30    1
    30    11    31    1
    31    12    32    1
    32    12    33    1
    33    12    34    1
    34    13    35    1
    35    13    36    1
    36    13    37    1
    37    14    38    1
    38    14    39    1
    39    14    40    1
