@<TRIPOS>MOLECULE
IMPHY013026
 53 56 0 0 0
SMALL
GASTEIGER

@<TRIPOS>ATOM
      1 O           2.6198   -2.2018    0.0000 O.3     1  UNL1       -0.3907
      2 O           2.7606    1.3030    0.0000 O.3     1  UNL1       -0.4802
      3 O           7.3668   -0.7181    0.0000 O.3     1  UNL1       -0.4804
      4 O           3.7892    2.2736    0.0000 O.2     1  UNL1       -0.2504
      5 O           6.1677   -1.9679    0.0000 O.2     1  UNL1       -0.2507
      6 O           3.2846   -2.8554    0.0000 O.3     1  UNL1       -0.4802
      7 O           5.0164   -2.8857    0.0000 O.2     1  UNL1       -0.2503
      8 C           5.8209    0.6802    0.0000 C.3     1  UNL1       -0.0080
      9 C           4.9199    1.1141    0.0000 C.3     1  UNL1       -0.0182
     10 C           4.2348    0.3938    0.0000 C.3     1  UNL1        0.0757
     11 C           4.7066   -0.4812    0.0000 C.3     1  UNL1        0.0063
     12 C           5.6849   -0.3045    0.0000 C.3     1  UNL1        0.0674
     13 C           5.7140    1.8570    0.0000 C.3     1  UNL1       -0.0395
     14 C           6.7218    1.1141    0.0000 C.3     1  UNL1       -0.0250
     15 C           4.1767   -1.3708    0.0000 C.3     1  UNL1        0.0951
     16 C           6.3209    2.8708    0.0000 C.3     1  UNL1       -0.0196
     17 C           4.6974    2.0890    0.0000 C.3     1  UNL1       -0.0481
     18 C           3.2003    0.4398    0.0000 C.3     1  UNL1       -0.0343
     19 C           5.3209    2.8708    0.0000 C.3     1  UNL1       -0.0462
     20 C           6.9444    2.0890    0.0000 C.2     1  UNL1       -0.0730
     21 C           3.1415   -1.3487    0.0000 C.3     1  UNL1        0.0710
     22 C           2.6500   -0.4373    0.0000 C.3     1  UNL1       -0.0248
     23 C           3.7602    1.2740    0.0000 C.2     1  UNL1        0.3115
     24 C           6.4065   -0.9968    0.0000 C.2     1  UNL1        0.3087
     25 C           5.0338   -1.8858    0.0000 C.3     1  UNL1       -0.0467
     26 C           4.1592   -2.3706    0.0000 C.2     1  UNL1        0.3135
     27 C           7.9193    2.3115    0.0000 C.2     1  UNL1       -0.0992
     28 H           4.1541    1.4829    0.0000 H       1  UNL1        0.0317
     29 H           5.1908   -1.1798    0.0000 H       1  UNL1        0.0331
     30 H           6.2705   -0.1010    0.0000 H       1  UNL1        0.0422
     31 H           5.3062    2.3240    0.0000 H       1  UNL1        0.0277
     32 H           5.1440    1.6132    0.0000 H       1  UNL1        0.0277
     33 H           6.8598    0.5096    0.0000 H       1  UNL1        0.0316
     34 H           7.3418    1.1141    0.0000 H       1  UNL1        0.0316
     35 H           6.5100    3.6995    0.0000 H       1  UNL1        0.0346
     36 H           4.3108    2.5738    0.0000 H       1  UNL1        0.0269
     37 H           4.1388    1.8200    0.0000 H       1  UNL1        0.0269
     38 H           3.3335    1.0454    0.0000 H       1  UNL1        0.0277
     39 H           2.6265    0.6746    0.0000 H       1  UNL1        0.0277
     40 H           5.4588    3.4753    0.0000 H       1  UNL1        0.0271
     41 H           4.7623    3.1399    0.0000 H       1  UNL1        0.0271
     42 H           3.4389   -1.8927    0.0000 H       1  UNL1        0.0604
     43 H           2.1890   -0.0227    0.0000 H       1  UNL1        0.0291
     44 H           2.1627   -0.8206    0.0000 H       1  UNL1        0.0291
     45 H           4.7145   -2.4173    0.0000 H       1  UNL1        0.0241
     46 H           5.5653   -2.2052    0.0000 H       1  UNL1        0.0241
     47 H           5.3532   -1.3544    0.0000 H       1  UNL1        0.0241
     48 H           8.3410    1.8570    0.0000 H       1  UNL1        0.0534
     49 H           8.1020    2.9040    0.0000 H       1  UNL1        0.0534
     50 H           2.0000   -2.1862    0.0000 H       1  UNL1        0.2098
     51 H           2.4663    1.8487    0.0000 H       1  UNL1        0.2951
     52 H           7.8142   -1.1473    0.0000 H       1  UNL1        0.2951
     53 H           3.2737   -3.4753    0.0000 H       1  UNL1        0.2951
@<TRIPOS>BOND
     1    21     1    1
     2     1    50    1
     3     2    23    1
     4     2    51    1
     5     3    24    1
     6     3    52    1
     7     4    23    2
     8     5    24    2
     9     6    26    1
    10     6    53    1
    11     7    26    2
    12     8     9    1
    13     8    12    1
    14     8    13    1
    15     8    14    1
    16     9    10    1
    17     9    17    1
    18     9    28    1
    19    10    11    1
    20    10    18    1
    21    10    23    1
    22    11    12    1
    23    11    15    1
    24    11    29    1
    25    12    24    1
    26    12    30    1
    27    13    16    1
    28    13    31    1
    29    13    32    1
    30    14    20    1
    31    14    33    1
    32    14    34    1
    33    15    21    1
    34    15    25    1
    35    15    26    1
    36    16    19    1
    37    16    20    1
    38    16    35    1
    39    17    19    1
    40    17    36    1
    41    17    37    1
    42    18    22    1
    43    18    38    1
    44    18    39    1
    45    19    40    1
    46    19    41    1
    47    20    27    2
    48    21    22    1
    49    21    42    1
    50    22    43    1
    51    22    44    1
    52    25    45    1
    53    25    46    1
    54    25    47    1
    55    27    48    1
    56    27    49    1
