@<TRIPOS>MOLECULE
IMPHY010028
 38 38 0 0 0
SMALL
GASTEIGER

@<TRIPOS>ATOM
      1 O           6.3301    4.1900    0.0000 O.3     1  UNL1       -0.3907
      2 C           3.7320   -0.3100    0.0000 C.3     1  UNL1       -0.0488
      3 C           3.7320    0.6900    0.0000 C.3     1  UNL1       -0.0493
      4 C           2.8660   -0.8100    0.0000 C.3     1  UNL1       -0.0277
      5 C           4.5981    1.1900    0.0000 C.3     1  UNL1       -0.0344
      6 C           2.8660   -1.8100    0.0000 C.ar    1  UNL1       -0.0473
      7 C           4.5981    2.1900    0.0000 C.2     1  UNL1       -0.0829
      8 C           2.0000   -2.3100    0.0000 C.ar    1  UNL1       -0.0583
      9 C           3.7320   -2.3100    0.0000 C.ar    1  UNL1       -0.0583
     10 C           5.4641    2.6900    0.0000 C.2     1  UNL1       -0.0515
     11 C           2.8660   -3.8100    0.0000 C.ar    1  UNL1       -0.0504
     12 C           2.0000   -3.3100    0.0000 C.ar    1  UNL1       -0.0586
     13 C           3.7320   -3.3100    0.0000 C.ar    1  UNL1       -0.0586
     14 C           5.4641    3.6900    0.0000 C.3     1  UNL1        0.0650
     15 C           6.3301    2.1900    0.0000 C.3     1  UNL1       -0.0416
     16 C           2.8660   -4.8100    0.0000 C.3     1  UNL1       -0.0397
     17 H           3.9441   -0.8926    0.0000 H       1  UNL1        0.0268
     18 H           4.3426   -0.2023    0.0000 H       1  UNL1        0.0268
     19 H           3.5200    1.2726    0.0000 H       1  UNL1        0.0268
     20 H           3.1215    0.5823    0.0000 H       1  UNL1        0.0268
     21 H           2.6540   -0.2274    0.0000 H       1  UNL1        0.0313
     22 H           2.2554   -0.9177    0.0000 H       1  UNL1        0.0313
     23 H           4.8101    0.6074    0.0000 H       1  UNL1        0.0307
     24 H           5.2087    1.2977    0.0000 H       1  UNL1        0.0307
     25 H           4.0611    2.5000    0.0000 H       1  UNL1        0.0572
     26 H           1.4631   -2.0000    0.0000 H       1  UNL1        0.0620
     27 H           4.2690   -2.0000    0.0000 H       1  UNL1        0.0620
     28 H           1.4631   -3.6200    0.0000 H       1  UNL1        0.0620
     29 H           4.2690   -3.6200    0.0000 H       1  UNL1        0.0620
     30 H           5.2520    4.2726    0.0000 H       1  UNL1        0.0604
     31 H           4.8535    3.5823    0.0000 H       1  UNL1        0.0604
     32 H           6.0201    1.6531    0.0000 H       1  UNL1        0.0275
     33 H           6.8671    1.8800    0.0000 H       1  UNL1        0.0275
     34 H           6.6401    2.7269    0.0000 H       1  UNL1        0.0275
     35 H           2.2460   -4.8100    0.0000 H       1  UNL1        0.0278
     36 H           2.8660   -5.4300    0.0000 H       1  UNL1        0.0278
     37 H           3.4860   -4.8100    0.0000 H       1  UNL1        0.0278
     38 H           6.3301    4.8100    0.0000 H       1  UNL1        0.2098
@<TRIPOS>BOND
     1     1    14    1
     2     1    38    1
     3     2     3    1
     4     2     4    1
     5     2    17    1
     6     2    18    1
     7     3     5    1
     8     3    19    1
     9     3    20    1
    10     4     6    1
    11     4    21    1
    12     4    22    1
    13     5     7    1
    14     5    23    1
    15     5    24    1
    16     6     8   ar
    17     6     9   ar
    18     7    10    2
    19     7    25    1
    20     8    12   ar
    21     8    26    1
    22     9    13   ar
    23     9    27    1
    24    10    14    1
    25    10    15    1
    26    11    12   ar
    27    11    13   ar
    28    11    16    1
    29    12    28    1
    30    13    29    1
    31    14    30    1
    32    14    31    1
    33    15    32    1
    34    15    33    1
    35    15    34    1
    36    16    35    1
    37    16    36    1
    38    16    37    1
