@<TRIPOS>MOLECULE
IMPHY005083
 48 48 0 0 0
SMALL
GASTEIGER

@<TRIPOS>ATOM
      1 O           7.7331    0.7500    0.0000 O.2     1  UNL1       -0.2758
      2 O           4.2690    4.7500    0.0000 O.3     1  UNL1       -0.4914
      3 O           2.5369    3.7500    0.0000 O.3     1  UNL1       -0.5033
      4 N           6.0010    0.7500    0.0000 N.am    1  UNL1       -0.3112
      5 C           8.5991   -3.7500    0.0000 C.3     1  UNL1       -0.0507
      6 C           8.5991   -2.7500    0.0000 C.3     1  UNL1       -0.0528
      7 C           9.4651   -4.2500    0.0000 C.3     1  UNL1       -0.0467
      8 C           7.7331   -2.2500    0.0000 C.3     1  UNL1       -0.0526
      9 C           7.7331   -1.2500    0.0000 C.3     1  UNL1       -0.0448
     10 C           6.8671   -0.7500    0.0000 C.3     1  UNL1        0.0240
     11 C           9.4651   -5.2500    0.0000 C.3     1  UNL1       -0.0627
     12 C          10.3312   -3.7500    0.0000 C.3     1  UNL1       -0.0627
     13 C           6.8671    0.2500    0.0000 C.2     1  UNL1        0.2133
     14 C           6.0010    1.7500    0.0000 C.3     1  UNL1        0.0369
     15 C           5.1350    2.2500    0.0000 C.ar    1  UNL1       -0.0266
     16 C           5.1350    3.2500    0.0000 C.ar    1  UNL1       -0.0116
     17 C           4.2690    1.7500    0.0000 C.ar    1  UNL1       -0.0534
     18 C           4.2690    3.7500    0.0000 C.ar    1  UNL1        0.1616
     19 C           3.4030    2.2500    0.0000 C.ar    1  UNL1       -0.0162
     20 C           3.4030    3.2500    0.0000 C.ar    1  UNL1        0.1585
     21 C           5.1350    5.2500    0.0000 C.3     1  UNL1        0.0790
     22 H           7.9885   -3.6423    0.0000 H       1  UNL1        0.0268
     23 H           8.3871   -4.3326    0.0000 H       1  UNL1        0.0268
     24 H           9.2097   -2.8577    0.0000 H       1  UNL1        0.0265
     25 H           8.8112   -2.1674    0.0000 H       1  UNL1        0.0265
     26 H          10.0021   -4.5600    0.0000 H       1  UNL1        0.0295
     27 H           7.1225   -2.1423    0.0000 H       1  UNL1        0.0265
     28 H           7.5210   -2.8326    0.0000 H       1  UNL1        0.0265
     29 H           8.3437   -1.3577    0.0000 H       1  UNL1        0.0270
     30 H           7.9451   -0.6674    0.0000 H       1  UNL1        0.0270
     31 H           6.2565   -0.6423    0.0000 H       1  UNL1        0.0358
     32 H           6.6550   -1.3326    0.0000 H       1  UNL1        0.0358
     33 H          10.6412   -4.2869    0.0000 H       1  UNL1        0.0232
     34 H           8.8451   -5.2500    0.0000 H       1  UNL1        0.0232
     35 H           9.4651   -5.8700    0.0000 H       1  UNL1        0.0232
     36 H          10.0851   -5.2500    0.0000 H       1  UNL1        0.0232
     37 H          10.8681   -3.4400    0.0000 H       1  UNL1        0.0232
     38 H          10.0212   -3.2131    0.0000 H       1  UNL1        0.0232
     39 H           5.4641    0.4400    0.0000 H       1  UNL1        0.1490
     40 H           6.6116    1.6423    0.0000 H       1  UNL1        0.0512
     41 H           6.2131    2.3326    0.0000 H       1  UNL1        0.0512
     42 H           5.6720    3.5600    0.0000 H       1  UNL1        0.0658
     43 H           4.2690    1.1300    0.0000 H       1  UNL1        0.0622
     44 H           2.8660    1.9400    0.0000 H       1  UNL1        0.0655
     45 H           2.0000    3.4400    0.0000 H       1  UNL1        0.2923
     46 H           5.4450    4.7131    0.0000 H       1  UNL1        0.0660
     47 H           5.6720    5.5600    0.0000 H       1  UNL1        0.0660
     48 H           4.8250    5.7869    0.0000 H       1  UNL1        0.0660
@<TRIPOS>BOND
     1     1    13    2
     2     2    18    1
     3     2    21    1
     4     3    20    1
     5     3    45    1
     6     4    13   am
     7     4    14    1
     8     4    39    1
     9     5     6    1
    10     5     7    1
    11     5    22    1
    12     5    23    1
    13     6     8    1
    14     6    24    1
    15     6    25    1
    16     7    11    1
    17     7    12    1
    18     7    26    1
    19     8     9    1
    20     8    27    1
    21     8    28    1
    22     9    10    1
    23     9    29    1
    24     9    30    1
    25    10    13    1
    26    10    31    1
    27    10    32    1
    28    11    34    1
    29    11    35    1
    30    11    36    1
    31    12    33    1
    32    12    37    1
    33    12    38    1
    34    14    15    1
    35    14    40    1
    36    14    41    1
    37    15    16   ar
    38    15    17   ar
    39    16    18   ar
    40    16    42    1
    41    17    19   ar
    42    17    43    1
    43    18    20   ar
    44    19    20   ar
    45    19    44    1
    46    21    46    1
    47    21    47    1
    48    21    48    1
