@<TRIPOS>MOLECULE
IMPHY004380
 104 103 0 0 0
SMALL
GASTEIGER

@<TRIPOS>ATOM
      1 C           8.9282   -0.2500    0.0000 C.3     1  UNL1       -0.0286
      2 C          21.9186    0.2500    0.0000 C.3     1  UNL1       -0.0286
      3 C          22.7846   -0.2500    0.0000 C.3     1  UNL1       -0.0308
      4 C           8.0622    0.2500    0.0000 C.3     1  UNL1       -0.0308
      5 C          21.0526   -0.2500    0.0000 C.2     1  UNL1       -0.0762
      6 C           9.7942    0.2500    0.0000 C.2     1  UNL1       -0.0762
      7 C          19.3205   -0.2500    0.0000 C.3     1  UNL1       -0.0308
      8 C          11.5263    0.2500    0.0000 C.3     1  UNL1       -0.0308
      9 C          24.5167   -0.2500    0.0000 C.2     1  UNL1       -0.0762
     10 C           6.3301    0.2500    0.0000 C.2     1  UNL1       -0.0762
     11 C          25.3827    0.2500    0.0000 C.3     1  UNL1       -0.0286
     12 C           5.4641   -0.2500    0.0000 C.3     1  UNL1       -0.0286
     13 C          23.6506    0.2500    0.0000 C.2     1  UNL1       -0.0847
     14 C           7.1962   -0.2500    0.0000 C.2     1  UNL1       -0.0847
     15 C          10.6603   -0.2500    0.0000 C.2     1  UNL1       -0.0847
     16 C          20.1865    0.2500    0.0000 C.2     1  UNL1       -0.0847
     17 C          12.3923   -0.2500    0.0000 C.3     1  UNL1       -0.0283
     18 C          18.4545    0.2500    0.0000 C.3     1  UNL1       -0.0283
     19 C           4.5981    0.2500    0.0000 C.3     1  UNL1       -0.0308
     20 C          26.2487   -0.2500    0.0000 C.3     1  UNL1       -0.0308
     21 C          21.0526   -1.2500    0.0000 C.3     1  UNL1       -0.0438
     22 C           9.7942    1.2500    0.0000 C.3     1  UNL1       -0.0438
     23 C          17.5885   -0.2500    0.0000 C.2     1  UNL1       -0.0723
     24 C          13.2583    0.2500    0.0000 C.2     1  UNL1       -0.0723
     25 C          24.5167   -1.2500    0.0000 C.3     1  UNL1       -0.0438
     26 C           6.3301    1.2500    0.0000 C.3     1  UNL1       -0.0438
     27 C          27.1147    0.2500    0.0000 C.2     1  UNL1       -0.0850
     28 C           3.7320   -0.2500    0.0000 C.2     1  UNL1       -0.0850
     29 C          14.1244   -0.2500    0.0000 C.2     1  UNL1       -0.0628
     30 C          16.7224    0.2500    0.0000 C.2     1  UNL1       -0.0628
     31 C          13.2583    1.2500    0.0000 C.3     1  UNL1       -0.0435
     32 C          17.5885   -1.2500    0.0000 C.3     1  UNL1       -0.0435
     33 C          27.9808   -0.2500    0.0000 C.2     1  UNL1       -0.0796
     34 C           2.8660    0.2500    0.0000 C.2     1  UNL1       -0.0796
     35 C          14.9904    0.2500    0.0000 C.2     1  UNL1       -0.0618
     36 C          15.8564   -0.2500    0.0000 C.2     1  UNL1       -0.0618
     37 C          28.8468    0.2500    0.0000 C.3     1  UNL1       -0.0440
     38 C          27.9808   -1.2500    0.0000 C.3     1  UNL1       -0.0440
     39 C           2.0000   -0.2500    0.0000 C.3     1  UNL1       -0.0440
     40 C           2.8660    1.2500    0.0000 C.3     1  UNL1       -0.0440
     41 H           8.5297   -0.7249    0.0000 H       1  UNL1        0.0313
     42 H           9.3267   -0.7249    0.0000 H       1  UNL1        0.0313
     43 H          22.3171    0.7249    0.0000 H       1  UNL1        0.0313
     44 H          21.5201    0.7249    0.0000 H       1  UNL1        0.0313
     45 H           8.4607    0.7249    0.0000 H       1  UNL1        0.0310
     46 H           7.6636    0.7249    0.0000 H       1  UNL1        0.0310
     47 H          22.3861   -0.7249    0.0000 H       1  UNL1        0.0310
     48 H          23.1831   -0.7249    0.0000 H       1  UNL1        0.0310
     49 H          18.9220   -0.7249    0.0000 H       1  UNL1        0.0310
     50 H          19.7190   -0.7249    0.0000 H       1  UNL1        0.0310
     51 H          11.9248    0.7249    0.0000 H       1  UNL1        0.0310
     52 H          11.1278    0.7249    0.0000 H       1  UNL1        0.0310
     53 H           5.0656   -0.7249    0.0000 H       1  UNL1        0.0313
     54 H           5.8626   -0.7249    0.0000 H       1  UNL1        0.0313
     55 H          25.7812    0.7249    0.0000 H       1  UNL1        0.0313
     56 H          24.9842    0.7249    0.0000 H       1  UNL1        0.0313
     57 H          23.6506    0.8700    0.0000 H       1  UNL1        0.0572
     58 H           7.1962   -0.8700    0.0000 H       1  UNL1        0.0572
     59 H          20.1865    0.8700    0.0000 H       1  UNL1        0.0572
     60 H          10.6603   -0.8700    0.0000 H       1  UNL1        0.0572
     61 H          11.9938   -0.7249    0.0000 H       1  UNL1        0.0313
     62 H          12.7908   -0.7249    0.0000 H       1  UNL1        0.0313
     63 H          18.8530    0.7249    0.0000 H       1  UNL1        0.0313
     64 H          18.0560    0.7249    0.0000 H       1  UNL1        0.0313
     65 H          25.8502   -0.7249    0.0000 H       1  UNL1        0.0310
     66 H          26.6472   -0.7249    0.0000 H       1  UNL1        0.0310
     67 H           4.9966    0.7249    0.0000 H       1  UNL1        0.0310
     68 H           4.1996    0.7249    0.0000 H       1  UNL1        0.0310
     69 H          20.4326   -1.2500    0.0000 H       1  UNL1        0.0274
     70 H          10.4142    1.2500    0.0000 H       1  UNL1        0.0274
     71 H           9.7942    1.8700    0.0000 H       1  UNL1        0.0274
     72 H           9.1742    1.2500    0.0000 H       1  UNL1        0.0274
     73 H          21.0526   -1.8700    0.0000 H       1  UNL1        0.0274
     74 H          21.6726   -1.2500    0.0000 H       1  UNL1        0.0274
     75 H           6.9501    1.2500    0.0000 H       1  UNL1        0.0274
     76 H           6.3301    1.8700    0.0000 H       1  UNL1        0.0274
     77 H           5.7101    1.2500    0.0000 H       1  UNL1        0.0274
     78 H          23.8967   -1.2500    0.0000 H       1  UNL1        0.0274
     79 H          24.5167   -1.8700    0.0000 H       1  UNL1        0.0274
     80 H          25.1367   -1.2500    0.0000 H       1  UNL1        0.0274
     81 H          27.1147    0.8700    0.0000 H       1  UNL1        0.0572
     82 H           3.7320   -0.8700    0.0000 H       1  UNL1        0.0572
     83 H          14.1244   -0.8700    0.0000 H       1  UNL1        0.0617
     84 H          16.7224    0.8700    0.0000 H       1  UNL1        0.0617
     85 H          13.8783    1.2500    0.0000 H       1  UNL1        0.0274
     86 H          13.2583    1.8700    0.0000 H       1  UNL1        0.0274
     87 H          12.6383    1.2500    0.0000 H       1  UNL1        0.0274
     88 H          16.9685   -1.2500    0.0000 H       1  UNL1        0.0274
     89 H          17.5885   -1.8700    0.0000 H       1  UNL1        0.0274
     90 H          18.2085   -1.2500    0.0000 H       1  UNL1        0.0274
     91 H          14.9904    0.8700    0.0000 H       1  UNL1        0.0618
     92 H          15.8564   -0.8700    0.0000 H       1  UNL1        0.0618
     93 H           1.6900    0.2869    0.0000 H       1  UNL1        0.0274
     94 H           1.4631   -0.5600    0.0000 H       1  UNL1        0.0274
     95 H           2.3100   -0.7869    0.0000 H       1  UNL1        0.0274
     96 H           3.4860    1.2500    0.0000 H       1  UNL1        0.0274
     97 H           2.8660    1.8700    0.0000 H       1  UNL1        0.0274
     98 H           2.2460    1.2500    0.0000 H       1  UNL1        0.0274
     99 H          27.3608   -1.2500    0.0000 H       1  UNL1        0.0274
    100 H          27.9808   -1.8700    0.0000 H       1  UNL1        0.0274
    101 H          28.6008   -1.2500    0.0000 H       1  UNL1        0.0274
    102 H          29.1568   -0.2869    0.0000 H       1  UNL1        0.0274
    103 H          29.3837    0.5600    0.0000 H       1  UNL1        0.0274
    104 H          28.5368    0.7869    0.0000 H       1  UNL1        0.0274
@<TRIPOS>BOND
     1     1     4    1
     2     1     6    1
     3     1    41    1
     4     1    42    1
     5     2     3    1
     6     2     5    1
     7     2    43    1
     8     2    44    1
     9     3    13    1
    10     3    47    1
    11     3    48    1
    12     4    14    1
    13     4    45    1
    14     4    46    1
    15     5    16    2
    16     5    21    1
    17     6    15    2
    18     6    22    1
    19     7    16    1
    20     7    18    1
    21     7    49    1
    22     7    50    1
    23     8    15    1
    24     8    17    1
    25     8    51    1
    26     8    52    1
    27     9    11    1
    28     9    13    2
    29     9    25    1
    30    10    12    1
    31    10    14    2
    32    10    26    1
    33    11    20    1
    34    11    55    1
    35    11    56    1
    36    12    19    1
    37    12    53    1
    38    12    54    1
    39    13    57    1
    40    14    58    1
    41    15    60    1
    42    16    59    1
    43    17    24    1
    44    17    61    1
    45    17    62    1
    46    18    23    1
    47    18    63    1
    48    18    64    1
    49    19    28    1
    50    19    67    1
    51    19    68    1
    52    20    27    1
    53    20    65    1
    54    20    66    1
    55    21    69    1
    56    21    73    1
    57    21    74    1
    58    22    70    1
    59    22    71    1
    60    22    72    1
    61    23    30    2
    62    23    32    1
    63    24    29    2
    64    24    31    1
    65    25    78    1
    66    25    79    1
    67    25    80    1
    68    26    75    1
    69    26    76    1
    70    26    77    1
    71    27    33    2
    72    27    81    1
    73    28    34    2
    74    28    82    1
    75    29    35    1
    76    29    83    1
    77    30    36    1
    78    30    84    1
    79    31    85    1
    80    31    86    1
    81    31    87    1
    82    32    88    1
    83    32    89    1
    84    32    90    1
    85    33    37    1
    86    33    38    1
    87    34    39    1
    88    34    40    1
    89    35    36    2
    90    35    91    1
    91    36    92    1
    92    37   102    1
    93    37   103    1
    94    37   104    1
    95    38    99    1
    96    38   100    1
    97    38   101    1
    98    39    93    1
    99    39    94    1
   100    39    95    1
   101    40    96    1
   102    40    97    1
   103    40    98    1
