@<TRIPOS>MOLECULE
IMPHY006977
 28 28 0 0 0
SMALL
GASTEIGER

@<TRIPOS>ATOM
      1 O           4.5981    1.5000    0.0000 O.2     1  UNL1       -0.2885
      2 O           6.3301    0.5000    0.0000 O.2     1  UNL1       -0.5034
      3 C           3.7320    0.0000    0.0000 C.3     1  UNL1        0.0278
      4 C           2.8660    0.5000    0.0000 C.3     1  UNL1       -0.0368
      5 C           3.7320   -1.0000    0.0000 C.3     1  UNL1       -0.0390
      6 C           4.5981   -1.5000    0.0000 C.3     1  UNL1       -0.0275
      7 C           4.5981    0.5000    0.0000 C.2     1  UNL1        0.2003
      8 C           5.4641   -1.0000    0.0000 C.2     1  UNL1       -0.0277
      9 C           5.4641    0.0000    0.0000 C.2     1  UNL1        0.1584
     10 C           2.0000    0.0000    0.0000 C.3     1  UNL1       -0.0620
     11 C           2.8660    1.5000    0.0000 C.3     1  UNL1       -0.0620
     12 C           6.3301   -1.5000    0.0000 C.3     1  UNL1       -0.0400
     13 H           4.2690   -0.3100    0.0000 H       1  UNL1        0.0384
     14 H           2.8660   -0.1200    0.0000 H       1  UNL1        0.0302
     15 H           3.1215   -0.8923    0.0000 H       1  UNL1        0.0275
     16 H           3.5200   -1.5826    0.0000 H       1  UNL1        0.0275
     17 H           4.1996   -1.9750    0.0000 H       1  UNL1        0.0311
     18 H           4.9966   -1.9750    0.0000 H       1  UNL1        0.0311
     19 H           1.6900    0.5369    0.0000 H       1  UNL1        0.0233
     20 H           1.4631   -0.3100    0.0000 H       1  UNL1        0.0233
     21 H           2.3100   -0.5369    0.0000 H       1  UNL1        0.0233
     22 H           3.4860    1.5000    0.0000 H       1  UNL1        0.0233
     23 H           2.8660    2.1200    0.0000 H       1  UNL1        0.0233
     24 H           2.2460    1.5000    0.0000 H       1  UNL1        0.0233
     25 H           6.0201   -2.0369    0.0000 H       1  UNL1        0.0276
     26 H           6.8671   -1.8100    0.0000 H       1  UNL1        0.0276
     27 H           6.6401   -0.9631    0.0000 H       1  UNL1        0.0276
     28 H           6.8671    0.1900    0.0000 H       1  UNL1        0.2923
@<TRIPOS>BOND
     1     1     7    2
     2     2     9    1
     3     2    28    1
     4     3     4    1
     5     3     5    1
     6     3     7    1
     7     3    13    1
     8     4    10    1
     9     4    11    1
    10     4    14    1
    11     5     6    1
    12     5    15    1
    13     5    16    1
    14     6     8    1
    15     6    17    1
    16     6    18    1
    17     7     9    1
    18     8     9    2
    19     8    12    1
    20    10    19    1
    21    10    20    1
    22    10    21    1
    23    11    22    1
    24    11    23    1
    25    11    24    1
    26    12    25    1
    27    12    26    1
    28    12    27    1
