@<TRIPOS>MOLECULE
IMPHY000945
 73 77 0 0 0
SMALL
GASTEIGER

@<TRIPOS>ATOM
      1 O           7.7331    0.0725    0.0000 O.3     1  UNL1       -0.3313
      2 O           6.0010   -0.9276    0.0000 O.3     1  UNL1       -0.3461
      3 O           4.2690   -0.9276    0.0000 O.3     1  UNL1       -0.3431
      4 O           6.0010    2.0724    0.0000 O.3     1  UNL1       -0.3865
      5 O           7.7331    3.0724    0.0000 O.3     1  UNL1       -0.3864
      6 O           9.4651    0.0725    0.0000 O.3     1  UNL1       -0.4515
      7 O           9.4651    2.0724    0.0000 O.3     1  UNL1       -0.3829
      8 O           6.0010   -2.9276    0.0000 O.3     1  UNL1       -0.3841
      9 O           4.2690   -3.9276    0.0000 O.3     1  UNL1       -0.3864
     10 O           2.5369   -2.9276    0.0000 O.3     1  UNL1       -0.3866
     11 O          12.0632    0.5724    0.0000 O.2     1  UNL1       -0.1997
     12 O          10.3094    3.6039    0.0000 O.3     1  UNL1       -0.5057
     13 O          13.8492    3.6176    0.0000 O.3     1  UNL1       -0.5063
     14 O           9.4651   -2.9276    0.0000 O.3     1  UNL1       -0.5033
     15 O          11.1972   -3.9276    0.0000 O.3     1  UNL1       -0.5033
     16 C           6.8671    0.5724    0.0000 C.3     1  UNL1        0.1144
     17 C           6.8671    1.5724    0.0000 C.3     1  UNL1        0.1120
     18 C           7.7331    2.0724    0.0000 C.3     1  UNL1        0.1152
     19 C           8.5991    1.5724    0.0000 C.3     1  UNL1        0.1454
     20 C           5.1350   -2.4276    0.0000 C.3     1  UNL1        0.1341
     21 C           5.1350   -1.4276    0.0000 C.3     1  UNL1        0.1879
     22 C           4.2690   -2.9276    0.0000 C.3     1  UNL1        0.1140
     23 C           3.4030   -2.4276    0.0000 C.3     1  UNL1        0.1095
     24 C           8.5991    0.5724    0.0000 C.3     1  UNL1        0.2312
     25 C           6.0010    0.0725    0.0000 C.3     1  UNL1        0.0796
     26 C           3.4030   -1.4276    0.0000 C.3     1  UNL1        0.0873
     27 C           2.5369   -0.9276    0.0000 C.3     1  UNL1       -0.0361
     28 C          10.3312    0.5724    0.0000 C.ar    1  UNL1        0.2288
     29 C          11.1972    0.0725    0.0000 C.ar    1  UNL1        0.4046
     30 C          10.3312    1.5724    0.0000 C.ar    1  UNL1        0.0093
     31 C          11.1972    2.0724    0.0000 C.ar    1  UNL1        0.1241
     32 C          11.1972   -0.9276    0.0000 C.ar    1  UNL1        0.0865
     33 C          12.0632    1.5724    0.0000 C.ar    1  UNL1        0.3708
     34 C          11.1811    3.1140    0.0000 C.ar    1  UNL1        0.1366
     35 C          12.9732    2.0793    0.0000 C.ar    1  UNL1        0.0847
     36 C          10.3312   -1.4276    0.0000 C.ar    1  UNL1       -0.0003
     37 C          12.0632   -1.4276    0.0000 C.ar    1  UNL1       -0.0418
     38 C          12.0792    3.6417    0.0000 C.ar    1  UNL1        0.0225
     39 C          12.9812    3.1209    0.0000 C.ar    1  UNL1        0.1293
     40 C          10.3312   -2.4276    0.0000 C.ar    1  UNL1        0.1591
     41 C          12.0632   -2.4276    0.0000 C.ar    1  UNL1       -0.0157
     42 C          11.1972   -2.9276    0.0000 C.ar    1  UNL1        0.1583
     43 H           6.8671   -0.0475    0.0000 H       1  UNL1        0.0647
     44 H           6.3301    1.2624    0.0000 H       1  UNL1        0.0647
     45 H           7.1962    2.3824    0.0000 H       1  UNL1        0.0648
     46 H           8.5991    2.1924    0.0000 H       1  UNL1        0.0683
     47 H           5.1350   -3.0476    0.0000 H       1  UNL1        0.0671
     48 H           5.6720   -1.7376    0.0000 H       1  UNL1        0.0937
     49 H           3.7320   -3.2376    0.0000 H       1  UNL1        0.0648
     50 H           2.8660   -2.1176    0.0000 H       1  UNL1        0.0646
     51 H           8.5991   -0.0475    0.0000 H       1  UNL1        0.1084
     52 H           5.7890    0.6551    0.0000 H       1  UNL1        0.0587
     53 H           5.3905   -0.0352    0.0000 H       1  UNL1        0.0587
     54 H           3.4030   -0.8076    0.0000 H       1  UNL1        0.0621
     55 H           2.8469   -0.3906    0.0000 H       1  UNL1        0.0255
     56 H           2.0000   -0.6176    0.0000 H       1  UNL1        0.0255
     57 H           2.2269   -1.4645    0.0000 H       1  UNL1        0.0255
     58 H           5.4641    1.7624    0.0000 H       1  UNL1        0.2100
     59 H           7.1962    3.3824    0.0000 H       1  UNL1        0.2100
     60 H           9.4651    2.6924    0.0000 H       1  UNL1        0.2102
     61 H           6.5380   -2.6176    0.0000 H       1  UNL1        0.2101
     62 H           3.7320   -4.2376    0.0000 H       1  UNL1        0.2100
     63 H           2.0000   -2.6176    0.0000 H       1  UNL1        0.2100
     64 H           9.7942    1.8824    0.0000 H       1  UNL1        0.0667
     65 H          13.5065    1.7631    0.0000 H       1  UNL1        0.0749
     66 H           9.7942   -1.1176    0.0000 H       1  UNL1        0.0664
     67 H          12.6002   -1.1176    0.0000 H       1  UNL1        0.0628
     68 H          12.0768    4.2617    0.0000 H       1  UNL1        0.0691
     69 H          12.6002   -2.7376    0.0000 H       1  UNL1        0.0655
     70 H          10.3022    4.2239    0.0000 H       1  UNL1        0.2922
     71 H          13.8516    4.2376    0.0000 H       1  UNL1        0.2921
     72 H           9.4651   -3.5476    0.0000 H       1  UNL1        0.2923
     73 H          11.7341   -4.2376    0.0000 H       1  UNL1        0.2923
@<TRIPOS>UNITY_ATOM_ATTR
11 1
charge 1
@<TRIPOS>BOND
     1     1    16    1
     2     1    24    1
     3    21     2    1
     4     2    25    1
     5     3    21    1
     6     3    26    1
     7    17     4    1
     8     4    58    1
     9    18     5    1
    10     5    59    1
    11    24     6    1
    12     6    28    1
    13    19     7    1
    14     7    60    1
    15    20     8    1
    16     8    61    1
    17    22     9    1
    18     9    62    1
    19    23    10    1
    20    10    63    1
    21    11    29   ar
    22    11    33   ar
    23    12    34    1
    24    12    70    1
    25    13    39    1
    26    13    71    1
    27    14    40    1
    28    14    72    1
    29    15    42    1
    30    15    73    1
    31    16    17    1
    32    16    25    1
    33    16    43    1
    34    17    18    1
    35    17    44    1
    36    18    19    1
    37    18    45    1
    38    19    24    1
    39    19    46    1
    40    20    21    1
    41    20    22    1
    42    20    47    1
    43    21    48    1
    44    22    23    1
    45    22    49    1
    46    23    26    1
    47    23    50    1
    48    24    51    1
    49    25    52    1
    50    25    53    1
    51    26    27    1
    52    26    54    1
    53    27    55    1
    54    27    56    1
    55    27    57    1
    56    28    29   ar
    57    28    30   ar
    58    29    32    1
    59    30    31   ar
    60    30    64    1
    61    31    33   ar
    62    31    34   ar
    63    32    36   ar
    64    32    37   ar
    65    33    35   ar
    66    34    38   ar
    67    35    39   ar
    68    35    65    1
    69    36    40   ar
    70    36    66    1
    71    37    41   ar
    72    37    67    1
    73    38    39   ar
    74    38    68    1
    75    40    42   ar
    76    41    42   ar
    77    41    69    1
