@<TRIPOS>MOLECULE
IMPHY017808
 114 114 0 0 0
SMALL
GASTEIGER

@<TRIPOS>ATOM
      1 O          10.6603   -4.2929    0.0000 O.3     1  UNL1       -0.4537
      2 O           8.9282   -3.2929    0.0000 O.3     1  UNL1       -0.4608
      3 O          10.6032   -6.3807    0.0000 O.3     1  UNL1       -0.4438
      4 O           9.7942   -2.7929    0.0000 O.2     1  UNL1       -0.2508
      5 O           7.1962   -3.2929    0.0000 O.2     1  UNL1       -0.2509
      6 O           8.0342   -6.0716    0.0000 O.2     1  UNL1       -0.5042
      7 O           8.7064   -8.1407    0.0000 O.2     1  UNL1       -0.4988
      8 O          10.8820   -8.1407    0.0000 O.2     1  UNL1       -0.2414
      9 C          14.1244    1.7071    0.0000 C.3     1  UNL1       -0.0531
     10 C          14.1244    2.7071    0.0000 C.3     1  UNL1       -0.0531
     11 C          13.2583    1.2071    0.0000 C.3     1  UNL1       -0.0531
     12 C           5.4641    2.7071    0.0000 C.3     1  UNL1       -0.0531
     13 C           4.5981    3.2071    0.0000 C.3     1  UNL1       -0.0531
     14 C           5.4641    1.7071    0.0000 C.3     1  UNL1       -0.0531
     15 C          14.9904    3.2071    0.0000 C.3     1  UNL1       -0.0531
     16 C           4.5981    4.2071    0.0000 C.3     1  UNL1       -0.0531
     17 C          13.2583    0.2071    0.0000 C.3     1  UNL1       -0.0531
     18 C           6.3301    1.2071    0.0000 C.3     1  UNL1       -0.0531
     19 C          14.9904    4.2071    0.0000 C.3     1  UNL1       -0.0531
     20 C           3.7320    4.7071    0.0000 C.3     1  UNL1       -0.0531
     21 C          12.3923   -0.2929    0.0000 C.3     1  UNL1       -0.0530
     22 C           6.3301    0.2071    0.0000 C.3     1  UNL1       -0.0530
     23 C          15.8564    4.7071    0.0000 C.3     1  UNL1       -0.0531
     24 C           3.7320    5.7071    0.0000 C.3     1  UNL1       -0.0531
     25 C          12.3923   -1.2929    0.0000 C.3     1  UNL1       -0.0526
     26 C           7.1962   -0.2929    0.0000 C.3     1  UNL1       -0.0526
     27 C          15.8564    5.7071    0.0000 C.3     1  UNL1       -0.0531
     28 C           2.8660    6.2071    0.0000 C.3     1  UNL1       -0.0531
     29 C          11.5263   -1.7929    0.0000 C.3     1  UNL1       -0.0430
     30 C           7.1962   -1.2929    0.0000 C.3     1  UNL1       -0.0430
     31 C          16.7224    6.2071    0.0000 C.3     1  UNL1       -0.0533
     32 C           2.8660    7.2071    0.0000 C.3     1  UNL1       -0.0533
     33 C          11.5263   -2.7929    0.0000 C.3     1  UNL1        0.0450
     34 C           8.0622   -1.7929    0.0000 C.3     1  UNL1        0.0449
     35 C           9.7942   -4.7929    0.0000 C.3     1  UNL1        0.1807
     36 C          16.7224    7.2071    0.0000 C.3     1  UNL1       -0.0559
     37 C           2.0000    7.7071    0.0000 C.3     1  UNL1       -0.0559
     38 C           9.7942   -5.7929    0.0000 C.3     1  UNL1        0.2032
     39 C           8.9282   -4.2929    0.0000 C.3     1  UNL1        0.1333
     40 C          10.6603   -3.2929    0.0000 C.2     1  UNL1        0.3076
     41 C           8.0622   -2.7929    0.0000 C.2     1  UNL1        0.3072
     42 C          17.5885    7.7071    0.0000 C.3     1  UNL1       -0.0653
     43 C           2.0000    8.7071    0.0000 C.3     1  UNL1       -0.0653
     44 C           8.9852   -6.3807    0.0000 C.2     1  UNL1        0.1875
     45 C           9.2942   -7.3317    0.0000 C.2     1  UNL1        0.2437
     46 C          10.2942   -7.3317    0.0000 C.2     1  UNL1        0.3784
     47 H          14.3364    1.1245    0.0000 H       1  UNL1        0.0265
     48 H          14.7349    1.8148    0.0000 H       1  UNL1        0.0265
     49 H          13.9123    3.2897    0.0000 H       1  UNL1        0.0265
     50 H          13.5138    2.5995    0.0000 H       1  UNL1        0.0265
     51 H          13.0463    1.7897    0.0000 H       1  UNL1        0.0265
     52 H          12.6477    1.0995    0.0000 H       1  UNL1        0.0265
     53 H           6.0747    2.5995    0.0000 H       1  UNL1        0.0265
     54 H           5.6762    3.2897    0.0000 H       1  UNL1        0.0265
     55 H           3.9875    3.3148    0.0000 H       1  UNL1        0.0265
     56 H           4.3860    2.6245    0.0000 H       1  UNL1        0.0265
     57 H           4.8535    1.8148    0.0000 H       1  UNL1        0.0265
     58 H           5.2520    1.1245    0.0000 H       1  UNL1        0.0265
     59 H          15.2024    2.6245    0.0000 H       1  UNL1        0.0265
     60 H          15.6010    3.3148    0.0000 H       1  UNL1        0.0265
     61 H           5.2087    4.0995    0.0000 H       1  UNL1        0.0265
     62 H           4.8101    4.7897    0.0000 H       1  UNL1        0.0265
     63 H          13.4704   -0.3755    0.0000 H       1  UNL1        0.0265
     64 H          13.8689    0.3148    0.0000 H       1  UNL1        0.0265
     65 H           6.9407    1.0995    0.0000 H       1  UNL1        0.0265
     66 H           6.5422    1.7897    0.0000 H       1  UNL1        0.0265
     67 H          14.7783    4.7897    0.0000 H       1  UNL1        0.0265
     68 H          14.3798    4.0995    0.0000 H       1  UNL1        0.0265
     69 H           3.1215    4.8148    0.0000 H       1  UNL1        0.0265
     70 H           3.5200    4.1245    0.0000 H       1  UNL1        0.0265
     71 H          12.1803    0.2897    0.0000 H       1  UNL1        0.0265
     72 H          11.7817   -0.4005    0.0000 H       1  UNL1        0.0265
     73 H           5.7196    0.3148    0.0000 H       1  UNL1        0.0265
     74 H           6.1181   -0.3755    0.0000 H       1  UNL1        0.0265
     75 H          16.0685    4.1245    0.0000 H       1  UNL1        0.0265
     76 H          16.4670    4.8148    0.0000 H       1  UNL1        0.0265
     77 H           4.3426    5.5995    0.0000 H       1  UNL1        0.0265
     78 H           3.9441    6.2897    0.0000 H       1  UNL1        0.0265
     79 H          12.6044   -1.8755    0.0000 H       1  UNL1        0.0265
     80 H          13.0029   -1.1852    0.0000 H       1  UNL1        0.0265
     81 H           7.8067   -0.4005    0.0000 H       1  UNL1        0.0265
     82 H           7.4082    0.2897    0.0000 H       1  UNL1        0.0265
     83 H          15.6444    6.2897    0.0000 H       1  UNL1        0.0265
     84 H          15.2458    5.5995    0.0000 H       1  UNL1        0.0265
     85 H           2.2554    6.3148    0.0000 H       1  UNL1        0.0265
     86 H           2.6540    5.6245    0.0000 H       1  UNL1        0.0265
     87 H          11.3142   -1.2103    0.0000 H       1  UNL1        0.0270
     88 H          10.9157   -1.9005    0.0000 H       1  UNL1        0.0270
     89 H           6.5856   -1.1852    0.0000 H       1  UNL1        0.0270
     90 H           6.9841   -1.8755    0.0000 H       1  UNL1        0.0270
     91 H          16.9345    5.6245    0.0000 H       1  UNL1        0.0265
     92 H          17.3330    6.3148    0.0000 H       1  UNL1        0.0265
     93 H           3.4766    7.0995    0.0000 H       1  UNL1        0.0265
     94 H           3.0781    7.7897    0.0000 H       1  UNL1        0.0265
     95 H          11.7383   -3.3755    0.0000 H       1  UNL1        0.0377
     96 H          12.1369   -2.6852    0.0000 H       1  UNL1        0.0377
     97 H           8.6728   -1.9005    0.0000 H       1  UNL1        0.0377
     98 H           8.2742   -1.2103    0.0000 H       1  UNL1        0.0377
     99 H           9.7942   -4.1729    0.0000 H       1  UNL1        0.0811
    100 H          16.5104    7.7897    0.0000 H       1  UNL1        0.0263
    101 H          16.1119    7.0995    0.0000 H       1  UNL1        0.0263
    102 H           1.3894    7.8148    0.0000 H       1  UNL1        0.0263
    103 H           1.7880    7.1245    0.0000 H       1  UNL1        0.0263
    104 H          10.3467   -5.5114    0.0000 H       1  UNL1        0.0857
    105 H           8.3176   -4.1852    0.0000 H       1  UNL1        0.0736
    106 H           8.7162   -4.8755    0.0000 H       1  UNL1        0.0736
    107 H          17.8985    7.1702    0.0000 H       1  UNL1        0.0230
    108 H          18.1254    8.0171    0.0000 H       1  UNL1        0.0230
    109 H          17.2785    8.2441    0.0000 H       1  UNL1        0.0230
    110 H           2.6200    8.7071    0.0000 H       1  UNL1        0.0230
    111 H           2.0000    9.3271    0.0000 H       1  UNL1        0.0230
    112 H           1.3800    8.7071    0.0000 H       1  UNL1        0.0230
    113 H           7.5734   -6.4865    0.0000 H       1  UNL1        0.2920
    114 H           8.9586   -8.7071    0.0000 H       1  UNL1        0.2925
@<TRIPOS>BOND
     1    35     1    1
     2     1    40    1
     3     2    39    1
     4     2    41    1
     5     3    38    1
     6     3    46    1
     7     4    40    2
     8     5    41    2
     9     6    44    1
    10     6   113    1
    11     7    45    1
    12     7   114    1
    13     8    46    2
    14     9    10    1
    15     9    11    1
    16     9    47    1
    17     9    48    1
    18    10    15    1
    19    10    49    1
    20    10    50    1
    21    11    17    1
    22    11    51    1
    23    11    52    1
    24    12    13    1
    25    12    14    1
    26    12    53    1
    27    12    54    1
    28    13    16    1
    29    13    55    1
    30    13    56    1
    31    14    18    1
    32    14    57    1
    33    14    58    1
    34    15    19    1
    35    15    59    1
    36    15    60    1
    37    16    20    1
    38    16    61    1
    39    16    62    1
    40    17    21    1
    41    17    63    1
    42    17    64    1
    43    18    22    1
    44    18    65    1
    45    18    66    1
    46    19    23    1
    47    19    67    1
    48    19    68    1
    49    20    24    1
    50    20    69    1
    51    20    70    1
    52    21    25    1
    53    21    71    1
    54    21    72    1
    55    22    26    1
    56    22    73    1
    57    22    74    1
    58    23    27    1
    59    23    75    1
    60    23    76    1
    61    24    28    1
    62    24    77    1
    63    24    78    1
    64    25    29    1
    65    25    79    1
    66    25    80    1
    67    26    30    1
    68    26    81    1
    69    26    82    1
    70    27    31    1
    71    27    83    1
    72    27    84    1
    73    28    32    1
    74    28    85    1
    75    28    86    1
    76    29    33    1
    77    29    87    1
    78    29    88    1
    79    30    34    1
    80    30    89    1
    81    30    90    1
    82    31    36    1
    83    31    91    1
    84    31    92    1
    85    32    37    1
    86    32    93    1
    87    32    94    1
    88    33    40    1
    89    33    95    1
    90    33    96    1
    91    34    41    1
    92    34    97    1
    93    34    98    1
    94    35    38    1
    95    35    39    1
    96    35    99    1
    97    36    42    1
    98    36   100    1
    99    36   101    1
   100    37    43    1
   101    37   102    1
   102    37   103    1
   103    38    44    1
   104    38   104    1
   105    39   105    1
   106    39   106    1
   107    42   107    1
   108    42   108    1
   109    42   109    1
   110    43   110    1
   111    43   111    1
   112    43   112    1
   113    44    45    2
   114    45    46    1
