@<TRIPOS>MOLECULE
IMPHY012442
 30 32 0 0 0
SMALL
GASTEIGER

@<TRIPOS>ATOM
      1 O           2.6720   -0.4179    0.0000 O.3     1  UNL1       -0.4950
      2 O           7.6214    1.8290    0.0000 O.2     1  UNL1       -0.2907
      3 N           6.1767    0.4946    0.0000 N.ar    1  UNL1       -0.3523
      4 N           8.7040   -0.6296    0.0000 N.ar    1  UNL1       -0.2500
      5 C           5.6767   -1.0442    0.0000 C.ar    1  UNL1        0.0077
      6 C           6.6767   -1.0442    0.0000 C.ar    1  UNL1        0.0110
      7 C           6.9857   -0.0932    0.0000 C.ar    1  UNL1        0.0767
      8 C           5.3677   -0.0932    0.0000 C.ar    1  UNL1        0.0510
      9 C           8.0011    0.1391    0.0000 C.ar    1  UNL1        0.1296
     10 C           4.9917   -1.8290    0.0000 C.ar    1  UNL1       -0.0485
     11 C           4.3523    0.1391    0.0000 C.ar    1  UNL1        0.0040
     12 C           7.3617   -1.8290    0.0000 C.ar    1  UNL1       -0.0338
     13 C           3.6493   -0.6296    0.0000 C.ar    1  UNL1        0.1221
     14 C           3.9712   -1.6203    0.0000 C.ar    1  UNL1       -0.0192
     15 C           8.3822   -1.6203    0.0000 C.ar    1  UNL1        0.0291
     16 C           8.2991    1.0936    0.0000 C.2     1  UNL1        0.1802
     17 C           9.2748    1.3128    0.0000 C.3     1  UNL1        0.0002
     18 C           2.0000   -1.1585    0.0000 C.3     1  UNL1        0.0788
     19 H           6.1767    1.1146    0.0000 H       1  UNL1        0.1660
     20 H           5.1901   -2.4164    0.0000 H       1  UNL1        0.0625
     21 H           4.1675    0.7309    0.0000 H       1  UNL1        0.0675
     22 H           7.1633   -2.4164    0.0000 H       1  UNL1        0.0639
     23 H           3.5581   -2.0826    0.0000 H       1  UNL1        0.0654
     24 H           8.7952   -2.0826    0.0000 H       1  UNL1        0.0830
     25 H           9.4107    0.7079    0.0000 H       1  UNL1        0.0310
     26 H           9.8797    1.4487    0.0000 H       1  UNL1        0.0310
     27 H           9.1389    1.9178    0.0000 H       1  UNL1        0.0310
     28 H           1.5408   -0.7419    0.0000 H       1  UNL1        0.0660
     29 H           1.5834   -1.6176    0.0000 H       1  UNL1        0.0660
     30 H           2.4592   -1.5751    0.0000 H       1  UNL1        0.0660
@<TRIPOS>BOND
     1     1    13    1
     2     1    18    1
     3     2    16    2
     4     3     7   ar
     5     3     8   ar
     6     3    19    1
     7     4     9   ar
     8     4    15   ar
     9     5     6   ar
    10     5     8   ar
    11     5    10   ar
    12     6     7   ar
    13     6    12   ar
    14     7     9   ar
    15     8    11   ar
    16     9    16    1
    17    10    14   ar
    18    10    20    1
    19    11    13   ar
    20    11    21    1
    21    12    15   ar
    22    12    22    1
    23    13    14   ar
    24    14    23    1
    25    15    24    1
    26    16    17    1
    27    17    25    1
    28    17    26    1
    29    17    27    1
    30    18    28    1
    31    18    29    1
    32    18    30    1
