@<TRIPOS>MOLECULE
IMPHY012750
 62 64 0 0 0
SMALL
GASTEIGER

@<TRIPOS>ATOM
      1 O           9.8602   -0.7500    0.0000 O.3     1  UNL1       -0.4928
      2 O           5.5301   -2.2500    0.0000 O.2     1  UNL1       -0.4618
      3 O           8.1282    2.2500    0.0000 O.3     1  UNL1       -0.5045
      4 O           5.5301    0.7500    0.0000 O.2     1  UNL1       -0.2863
      5 O           3.7817    0.7846    0.0000 O.3     1  UNL1       -0.5058
      6 O           2.0000   -2.2742    0.0000 O.3     1  UNL1       -0.5065
      7 N           9.8602    1.2500    0.0000 N.pl3   1  UNL1       -0.3523
      8 C           7.2622   -0.2500    0.0000 C.ar    1  UNL1        0.0027
      9 C           8.1282   -0.7500    0.0000 C.ar    1  UNL1        0.0082
     10 C           7.2622    0.7500    0.0000 C.ar    1  UNL1        0.0080
     11 C           6.3961   -0.7500    0.0000 C.ar    1  UNL1        0.0652
     12 C           8.9942   -0.2500    0.0000 C.ar    1  UNL1        0.1482
     13 C           8.1282   -1.7500    0.0000 C.3     1  UNL1       -0.0051
     14 C           6.3961    1.2500    0.0000 C.3     1  UNL1       -0.0051
     15 C           8.1282    1.2500    0.0000 C.ar    1  UNL1        0.1450
     16 C           8.9942    0.7500    0.0000 C.ar    1  UNL1        0.1094
     17 C           5.5301   -0.2500    0.0000 C.ar    1  UNL1        0.2037
     18 C           4.6641   -0.7500    0.0000 C.ar    1  UNL1        0.1060
     19 C           6.3961   -1.7500    0.0000 C.ar    1  UNL1        0.1039
     20 C           8.9942   -2.2500    0.0000 C.2     1  UNL1       -0.0808
     21 C           6.3961    2.2500    0.0000 C.2     1  UNL1       -0.0808
     22 C           4.6641   -1.7500    0.0000 C.ar    1  UNL1        0.1454
     23 C           8.9942   -3.2500    0.0000 C.2     1  UNL1       -0.0793
     24 C           5.5301    2.7500    0.0000 C.2     1  UNL1       -0.0793
     25 C           3.7702   -0.2153    0.0000 C.ar    1  UNL1        0.1347
     26 C           3.7702   -2.2847    0.0000 C.ar    1  UNL1        0.0231
     27 C           2.8641   -0.7292    0.0000 C.ar    1  UNL1        0.0223
     28 C           2.8641   -1.7708    0.0000 C.ar    1  UNL1        0.1239
     29 C          10.7263   -0.2500    0.0000 C.3     1  UNL1        0.0789
     30 C           9.8602   -3.7500    0.0000 C.3     1  UNL1       -0.0440
     31 C           8.1282   -3.7500    0.0000 C.3     1  UNL1       -0.0440
     32 C           5.5301    3.7500    0.0000 C.3     1  UNL1       -0.0440
     33 C           4.6641    2.2500    0.0000 C.3     1  UNL1       -0.0440
     34 H           7.5176   -1.6423    0.0000 H       1  UNL1        0.0357
     35 H           7.9162   -2.3326    0.0000 H       1  UNL1        0.0357
     36 H           5.7856    1.3577    0.0000 H       1  UNL1        0.0357
     37 H           6.1841    0.6674    0.0000 H       1  UNL1        0.0357
     38 H           6.9331   -2.0600    0.0000 H       1  UNL1        0.1037
     39 H           9.5312   -1.9400    0.0000 H       1  UNL1        0.0575
     40 H           6.9331    2.5600    0.0000 H       1  UNL1        0.0575
     41 H          10.3972    0.9400    0.0000 H       1  UNL1        0.1425
     42 H           9.8602    1.8700    0.0000 H       1  UNL1        0.1425
     43 H           8.6651    2.5600    0.0000 H       1  UNL1        0.2922
     44 H           3.7773   -2.9046    0.0000 H       1  UNL1        0.0691
     45 H           2.3284   -0.4171    0.0000 H       1  UNL1        0.0691
     46 H          11.0363   -0.7869    0.0000 H       1  UNL1        0.0660
     47 H          11.2632    0.0600    0.0000 H       1  UNL1        0.0660
     48 H          10.4163    0.2869    0.0000 H       1  UNL1        0.0660
     49 H           9.5502   -4.2869    0.0000 H       1  UNL1        0.0274
     50 H          10.3972   -4.0600    0.0000 H       1  UNL1        0.0274
     51 H          10.1703   -3.2131    0.0000 H       1  UNL1        0.0274
     52 H           7.8182   -3.2131    0.0000 H       1  UNL1        0.0274
     53 H           7.5913   -4.0600    0.0000 H       1  UNL1        0.0274
     54 H           8.4382   -4.2869    0.0000 H       1  UNL1        0.0274
     55 H           6.1501    3.7500    0.0000 H       1  UNL1        0.0274
     56 H           5.5301    4.3700    0.0000 H       1  UNL1        0.0274
     57 H           4.9101    3.7500    0.0000 H       1  UNL1        0.0274
     58 H           4.3541    2.7869    0.0000 H       1  UNL1        0.0274
     59 H           4.1272    1.9400    0.0000 H       1  UNL1        0.0274
     60 H           4.9741    1.7131    0.0000 H       1  UNL1        0.0274
     61 H           3.2484    1.1008    0.0000 H       1  UNL1        0.2922
     62 H           2.0024   -2.8941    0.0000 H       1  UNL1        0.2921
@<TRIPOS>BOND
     1     1    12    1
     2     1    29    1
     3     2    19   ar
     4     2    22   ar
     5     3    15    1
     6     3    43    1
     7     4    17    2
     8     5    25    1
     9     5    61    1
    10     6    28    1
    11     6    62    1
    12     7    16    1
    13     7    41    1
    14     7    42    1
    15     8     9   ar
    16     8    10   ar
    17     8    11    1
    18     9    12   ar
    19     9    13    1
    20    10    14    1
    21    10    15   ar
    22    11    17   ar
    23    11    19   ar
    24    12    16   ar
    25    13    20    1
    26    13    34    1
    27    13    35    1
    28    14    21    1
    29    14    36    1
    30    14    37    1
    31    15    16   ar
    32    17    18   ar
    33    18    22   ar
    34    18    25   ar
    35    19    38    1
    36    20    23    2
    37    20    39    1
    38    21    24    2
    39    21    40    1
    40    22    26   ar
    41    23    30    1
    42    23    31    1
    43    24    32    1
    44    24    33    1
    45    25    27   ar
    46    26    28   ar
    47    26    44    1
    48    27    28   ar
    49    27    45    1
    50    29    46    1
    51    29    47    1
    52    29    48    1
    53    30    49    1
    54    30    50    1
    55    30    51    1
    56    31    52    1
    57    31    53    1
    58    31    54    1
    59    32    55    1
    60    32    56    1
    61    32    57    1
    62    33    58    1
    63    33    59    1
    64    33    60    1
