@<TRIPOS>MOLECULE
IMPHY006786
 39 44 0 0 0
SMALL
GASTEIGER

@<TRIPOS>ATOM
      1 O           4.5406   -8.0602    0.0000 O.3     1  UNL1       -0.3602
      2 C           2.2703   -8.0602    0.0000 C.3     1  UNL1        0.1485
      3 C           2.2703   -6.7629    0.0000 C.3     1  UNL1        0.0815
      4 C           3.4115   -6.1022    0.0000 C.3     1  UNL1        0.0147
      5 C           4.5406   -6.7629    0.0000 C.3     1  UNL1        0.0913
      6 C           5.6698   -6.1022    0.0000 C.3     1  UNL1        0.0964
      7 O           6.9191   -6.5107    0.0000 O.3     1  UNL1       -0.3649
      8 C           7.6879   -5.4536    0.0000 C.3     1  UNL1        0.0892
      9 C           8.9371   -5.0452    0.0000 C.3     1  UNL1        0.0357
     10 C           8.9371   -3.7358    0.0000 C.3     1  UNL1        0.0486
     11 C           7.6879   -3.3274    0.0000 C.2     1  UNL1       -0.0458
     12 C           6.9191   -4.3845    0.0000 C.2     1  UNL1       -0.0299
     13 C           5.6698   -4.7929    0.0000 C.3     1  UNL1        0.0385
     14 C           4.5406   -4.1442    0.0000 C.3     1  UNL1        0.0201
     15 C           3.4115   -4.7929    0.0000 C.3     1  UNL1        0.0185
     16 C           2.2703   -4.1442    0.0000 C.2     1  UNL1       -0.0240
     17 C           1.1292   -4.7929    0.0000 C.2     1  UNL1        0.0329
     18 C           1.1292   -6.1022    0.0000 C.2     1  UNL1        0.1741
     19 C           1.1292   -7.4116    0.0000 C.3     1  UNL1        0.0100
     20 C           9.9942   -2.9550    0.0000 C.2     1  UNL1        0.0588
     21 C          11.2315   -3.3634    0.0000 C.2     1  UNL1        0.3394
     22 O          12.0123   -2.3064    0.0000 O.3     1  UNL1       -0.4154
     23 C          11.2315   -1.2493    0.0000 C.3     1  UNL1        0.3436
     24 C           9.9942   -1.6457    0.0000 C.2     1  UNL1        0.0541
     25 C           7.2794   -2.0781    0.0000 C.3     1  UNL1        0.0261
     26 C           5.6578   -3.4595    0.0000 C.3     1  UNL1        0.0062
     27 C           4.5406   -2.8349    0.0000 C.3     1  UNL1        0.1102
     28 C           3.4115   -2.1742    0.0000 C.2     1  UNL1        0.3171
     29 O           2.2703   -2.8349    0.0000 O.2     1  UNL1       -0.2501
     30 C           3.4115   -3.4836    0.0000 C.3     1  UNL1        0.0042
     31 O           0.0000   -6.7629    0.0000 O.2     1  UNL1       -0.2913
     32 O          11.6399   -4.6127    0.0000 O.2     1  UNL1       -0.2452
     33 O          11.6399    0.0000    0.0000 O.3     1  UNL1       -0.1693
     34 O           3.4115   -0.8529    0.0000 O.3     1  UNL1       -0.4444
     35 C           2.2703   -0.2042    0.0000 C.3     1  UNL1        0.2556
     36 H           5.6698   -7.4116    0.0000 H       1  UNL1        0.0631
     37 H           8.4566   -6.5107    0.0000 H       1  UNL1        0.0650
     38 H           3.3995   -7.3635    0.0000 H       1  UNL1        0.0346
     39 H           4.5286   -5.5256    0.0000 H       1  UNL1        0.0626
@<TRIPOS>BOND
     1     1     5    1
     2     1     2    1
     3     2     3    1
     4     3     4    1
     5     3    18    1
     6     3    19    1
     7     4    15    1
     8     4     5    1
     9     4    38    1
    10     5     6    1
    11     5    39    1
    12     6    13    1
    13     6     7    1
    14     6    36    1
    15     7     8    1
    16     8    12    1
    17     8     9    1
    18     8    37    1
    19     9    10    1
    20    10    11    1
    21    10    20    1
    22    11    12    2
    23    11    25    1
    24    12    13    1
    25    13    14    1
    26    13    26    1
    27    14    15    1
    28    14    27    1
    29    15    16    1
    30    15    30    1
    31    16    17    2
    32    17    18    1
    33    18    31    2
    34    20    24    2
    35    20    21    1
    36    21    22    1
    37    21    32    2
    38    22    23    1
    39    23    24    1
    40    23    33    1
    41    27    28    1
    42    28    29    2
    43    28    34    1
    44    34    35    1
