@<TRIPOS>MOLECULE
IMPHY008421
 28 28 0 0 0
SMALL
GASTEIGER

@<TRIPOS>ATOM
      1 O           5.4543   -0.2098    0.0000 O.3     1  UNL1       -0.3657
      2 O           2.0000    0.4291    0.0000 O.2     1  UNL1       -0.3007
      3 C           4.6453    0.3780    0.0000 C.3     1  UNL1        0.0688
      4 C           6.2633    0.3780    0.0000 C.3     1  UNL1        0.0850
      5 C           4.9543    1.3291    0.0000 C.3     1  UNL1       -0.0230
      6 C           5.9543    1.3291    0.0000 C.3     1  UNL1       -0.0180
      7 C           3.6942    0.0690    0.0000 C.3     1  UNL1        0.0379
      8 C           7.2144    0.6870    0.0000 C.3     1  UNL1       -0.0322
      9 C           6.8511   -0.4310    0.0000 C.2     1  UNL1       -0.0600
     10 C           3.4863   -0.9092    0.0000 C.3     1  UNL1       -0.0536
     11 C           2.9511    0.7381    0.0000 C.2     1  UNL1        0.1256
     12 C           6.4443   -1.3446    0.0000 C.2     1  UNL1       -0.1000
     13 H           4.5123   -0.4615    0.0000 H       1  UNL1        0.0603
     14 H           5.0191    1.9457    0.0000 H       1  UNL1        0.0291
     15 H           4.3478    1.4580    0.0000 H       1  UNL1        0.0291
     16 H           6.5607    1.4580    0.0000 H       1  UNL1        0.0297
     17 H           5.8895    1.9457    0.0000 H       1  UNL1        0.0297
     18 H           3.1046   -0.1226    0.0000 H       1  UNL1        0.0397
     19 H           7.4059    0.0974    0.0000 H       1  UNL1        0.0260
     20 H           7.8040    0.8786    0.0000 H       1  UNL1        0.0260
     21 H           7.0228    1.2767    0.0000 H       1  UNL1        0.0260
     22 H           7.4677   -0.3662    0.0000 H       1  UNL1        0.0594
     23 H           2.8798   -0.7803    0.0000 H       1  UNL1        0.0237
     24 H           3.3574   -1.5156    0.0000 H       1  UNL1        0.0237
     25 H           4.0927   -1.0381    0.0000 H       1  UNL1        0.0237
     26 H           3.0800    1.3446    0.0000 H       1  UNL1        0.1030
     27 H           5.8277   -1.4094    0.0000 H       1  UNL1        0.0533
     28 H           6.8088   -1.8462    0.0000 H       1  UNL1        0.0533
@<TRIPOS>BOND
     1     1     3    1
     2     1     4    1
     3     2    11    2
     4     3     5    1
     5     3     7    1
     6     3    13    1
     7     4     6    1
     8     4     8    1
     9     4     9    1
    10     5     6    1
    11     5    14    1
    12     5    15    1
    13     6    16    1
    14     6    17    1
    15     7    10    1
    16     7    11    1
    17     7    18    1
    18     8    19    1
    19     8    20    1
    20     8    21    1
    21     9    12    2
    22     9    22    1
    23    10    23    1
    24    10    24    1
    25    10    25    1
    26    11    26    1
    27    12    27    1
    28    12    28    1
