@<TRIPOS>MOLECULE
IMPHY017348
 51 50 0 0 0
SMALL
GASTEIGER

@<TRIPOS>ATOM
      1 O           2.5369    2.1900    0.0000 O.3     1  UNL1       -0.4806
      2 O           3.4030    0.6900    0.0000 O.2     1  UNL1       -0.2510
      3 C           7.7331    2.1900    0.0000 C.3     1  UNL1       -0.0530
      4 C           6.8671    1.6900    0.0000 C.3     1  UNL1       -0.0530
      5 C           8.5991    1.6900    0.0000 C.3     1  UNL1       -0.0528
      6 C           9.4651    2.1900    0.0000 C.3     1  UNL1       -0.0496
      7 C           6.0010    2.1900    0.0000 C.3     1  UNL1       -0.0526
      8 C          10.3312    1.6900    0.0000 C.3     1  UNL1       -0.0348
      9 C           5.1350    1.6900    0.0000 C.3     1  UNL1       -0.0430
     10 C          12.9292    0.1900    0.0000 C.3     1  UNL1       -0.0496
     11 C          12.9292   -0.8100    0.0000 C.3     1  UNL1       -0.0528
     12 C          12.0632    0.6900    0.0000 C.3     1  UNL1       -0.0348
     13 C          13.7953   -1.3100    0.0000 C.3     1  UNL1       -0.0533
     14 C          11.1972    2.1900    0.0000 C.2     1  UNL1       -0.0879
     15 C           4.2690    2.1900    0.0000 C.3     1  UNL1        0.0448
     16 C          12.0632    1.6900    0.0000 C.2     1  UNL1       -0.0879
     17 C          13.7953   -2.3100    0.0000 C.3     1  UNL1       -0.0559
     18 C          14.6613   -2.8100    0.0000 C.3     1  UNL1       -0.0653
     19 C           3.4030    1.6900    0.0000 C.2     1  UNL1        0.3047
     20 H           8.1316    2.6650    0.0000 H       1  UNL1        0.0265
     21 H           7.3346    2.6650    0.0000 H       1  UNL1        0.0265
     22 H           6.4685    1.2150    0.0000 H       1  UNL1        0.0265
     23 H           7.2656    1.2150    0.0000 H       1  UNL1        0.0265
     24 H           8.2006    1.2150    0.0000 H       1  UNL1        0.0265
     25 H           8.9976    1.2150    0.0000 H       1  UNL1        0.0265
     26 H           9.8637    2.6650    0.0000 H       1  UNL1        0.0268
     27 H           9.0666    2.6650    0.0000 H       1  UNL1        0.0268
     28 H           6.3996    2.6650    0.0000 H       1  UNL1        0.0265
     29 H           5.6025    2.6650    0.0000 H       1  UNL1        0.0265
     30 H           9.9326    1.2150    0.0000 H       1  UNL1        0.0307
     31 H          10.7297    1.2150    0.0000 H       1  UNL1        0.0307
     32 H           4.7365    1.2150    0.0000 H       1  UNL1        0.0270
     33 H           5.5335    1.2150    0.0000 H       1  UNL1        0.0270
     34 H          12.3187   -0.7023    0.0000 H       1  UNL1        0.0265
     35 H          12.7172   -1.3926    0.0000 H       1  UNL1        0.0265
     36 H          13.5398    0.0823    0.0000 H       1  UNL1        0.0268
     37 H          13.1413    0.7726    0.0000 H       1  UNL1        0.0268
     38 H          11.4526    0.7977    0.0000 H       1  UNL1        0.0307
     39 H          11.8512    0.1074    0.0000 H       1  UNL1        0.0307
     40 H          14.4058   -1.4177    0.0000 H       1  UNL1        0.0265
     41 H          14.0073   -0.7274    0.0000 H       1  UNL1        0.0265
     42 H          11.1972    2.8100    0.0000 H       1  UNL1        0.0569
     43 H           4.6675    2.6650    0.0000 H       1  UNL1        0.0377
     44 H           3.8705    2.6650    0.0000 H       1  UNL1        0.0377
     45 H          12.6002    2.0000    0.0000 H       1  UNL1        0.0569
     46 H          13.1847   -2.2023    0.0000 H       1  UNL1        0.0263
     47 H          13.5832   -2.8926    0.0000 H       1  UNL1        0.0263
     48 H          14.3513   -3.3469    0.0000 H       1  UNL1        0.0230
     49 H          15.1982   -3.1200    0.0000 H       1  UNL1        0.0230
     50 H          14.9713   -2.2731    0.0000 H       1  UNL1        0.0230
     51 H           2.0000    1.8800    0.0000 H       1  UNL1        0.2951
@<TRIPOS>BOND
     1     1    19    1
     2     1    51    1
     3     2    19    2
     4     3     4    1
     5     3     5    1
     6     3    20    1
     7     3    21    1
     8     4     7    1
     9     4    22    1
    10     4    23    1
    11     5     6    1
    12     5    24    1
    13     5    25    1
    14     6     8    1
    15     6    26    1
    16     6    27    1
    17     7     9    1
    18     7    28    1
    19     7    29    1
    20     8    14    1
    21     8    30    1
    22     8    31    1
    23     9    15    1
    24     9    32    1
    25     9    33    1
    26    10    11    1
    27    10    12    1
    28    10    36    1
    29    10    37    1
    30    11    13    1
    31    11    34    1
    32    11    35    1
    33    12    16    1
    34    12    38    1
    35    12    39    1
    36    13    17    1
    37    13    40    1
    38    13    41    1
    39    14    16    2
    40    14    42    1
    41    15    19    1
    42    15    43    1
    43    15    44    1
    44    16    45    1
    45    17    18    1
    46    17    46    1
    47    17    47    1
    48    18    48    1
    49    18    49    1
    50    18    50    1
