@<TRIPOS>MOLECULE
IMPHY005834
 102 114 0 0 0
SMALL
GASTEIGER

@<TRIPOS>ATOM
      1 O           6.3556    0.5477    0.0000 O.3     1  UNL1       -0.3753
      2 O           2.6039    0.8464    0.0000 O.3     1  UNL1       -0.3759
      3 O           7.5385   -4.0293    0.0000 O.3     1  UNL1       -0.4933
      4 O           8.1907    3.9115    0.0000 O.3     1  UNL1       -0.4646
      5 O           9.9227    3.9248    0.0000 O.2     1  UNL1       -0.2453
      6 N           6.4260   -2.2133    0.0000 N.pl3   1  UNL1       -0.3220
      7 N           2.9061   -2.2133    0.0000 N.3     1  UNL1       -0.2978
      8 N           9.0641   -0.6511    0.0000 N.3     1  UNL1       -0.2969
      9 N          10.9591    2.2145    0.0000 N.pl3   1  UNL1       -0.3164
     10 C           4.6660   -2.1786    0.0000 C.3     1  UNL1        0.0336
     11 C           5.5321   -1.6786    0.0000 C.3     1  UNL1        0.0376
     12 C           3.8000   -1.6786    0.0000 C.3     1  UNL1        0.0299
     13 C           3.8000   -0.6786    0.0000 C.3     1  UNL1        0.0158
     14 C           5.5321   -0.6786    0.0000 C.3     1  UNL1       -0.0203
     15 C           7.3321   -0.6578    0.0000 C.3     1  UNL1        0.0262
     16 C           4.6660   -0.1786    0.0000 C.3     1  UNL1       -0.0389
     17 C           8.1923    0.8455    0.0000 C.3     1  UNL1        0.0206
     18 C           6.4260   -0.1439    0.0000 C.3     1  UNL1       -0.0378
     19 C           7.3282    0.3422    0.0000 C.3     1  UNL1        0.0743
     20 C           9.0602    0.3489    0.0000 C.3     1  UNL1        0.0337
     21 C           7.3321   -1.6994    0.0000 C.3     1  UNL1        0.0218
     22 C           4.3009   -3.1029    0.0000 C.3     1  UNL1       -0.0273
     23 C           2.9061   -0.1439    0.0000 C.3     1  UNL1        0.0670
     24 C           8.2000   -1.1544    0.0000 C.3     1  UNL1        0.0087
     25 C           5.0312   -3.1029    0.0000 C.ar    1  UNL1       -0.0133
     26 C           9.9683    0.8592    0.0000 C.3     1  UNL1        0.0531
     27 C           4.1326    0.3020    0.0000 C.3     1  UNL1       -0.0199
     28 C           3.3073   -3.1225    0.0000 C.3     1  UNL1        0.0001
     29 C           6.0248   -3.1225    0.0000 C.ar    1  UNL1        0.0761
     30 C           7.5224    1.5800    0.0000 C.3     1  UNL1       -0.0196
     31 C           2.0000   -1.6994    0.0000 C.3     1  UNL1        0.0016
     32 C           2.0000   -0.6578    0.0000 C.3     1  UNL1       -0.0132
     33 C           8.1722    1.8870    0.0000 C.3     1  UNL1       -0.0098
     34 C          10.5582    0.0594    0.0000 C.3     1  UNL1       -0.0238
     35 C          10.0477   -0.7933    0.0000 C.3     1  UNL1        0.0004
     36 C           3.3776    1.1820    0.0000 C.3     1  UNL1        0.0487
     37 C           9.9723    1.9008    0.0000 C.2     1  UNL1        0.0304
     38 C           6.4324    1.3537    0.0000 C.3     1  UNL1        0.0487
     39 C           9.0682    2.4182    0.0000 C.2     1  UNL1        0.0551
     40 C          10.9527    0.5380    0.0000 C.ar    1  UNL1       -0.0130
     41 C           4.4824   -3.9807    0.0000 C.ar    1  UNL1       -0.0559
     42 C           6.5385   -4.0212    0.0000 C.ar    1  UNL1        0.1413
     43 C          11.5638    1.3739    0.0000 C.ar    1  UNL1        0.0353
     44 C           4.9752   -4.8910    0.0000 C.ar    1  UNL1       -0.0579
     45 C           6.0102   -4.9114    0.0000 C.ar    1  UNL1       -0.0181
     46 C          11.3732   -0.4552    0.0000 C.ar    1  UNL1       -0.0559
     47 C           9.0605    3.4182    0.0000 C.2     1  UNL1        0.3364
     48 C          12.6378    1.2745    0.0000 C.ar    1  UNL1       -0.0403
     49 C          12.4446   -0.5794    0.0000 C.ar    1  UNL1       -0.0614
     50 C          13.0811    0.2913    0.0000 C.ar    1  UNL1       -0.0600
     51 C           8.0314   -4.8994    0.0000 C.3     1  UNL1        0.0789
     52 C           8.1830    4.9114    0.0000 C.3     1  UNL1        0.0820
     53 H           6.2682   -1.2536    0.0000 H       1  UNL1        0.0512
     54 H           3.0639   -1.2536    0.0000 H       1  UNL1        0.0478
     55 H           5.5255    0.1714    0.0000 H       1  UNL1        0.0319
     56 H           5.0646    0.2963    0.0000 H       1  UNL1        0.0275
     57 H           4.2675    0.2963    0.0000 H       1  UNL1        0.0275
     58 H           6.8196    0.3351    0.0000 H       1  UNL1        0.0276
     59 H           6.0214    0.3258    0.0000 H       1  UNL1        0.0276
     60 H           6.6690   -0.1944    0.0000 H       1  UNL1        0.0608
     61 H           9.0570    1.1989    0.0000 H       1  UNL1        0.0481
     62 H           7.5411   -2.2831    0.0000 H       1  UNL1        0.0470
     63 H           7.9429   -1.5933    0.0000 H       1  UNL1        0.0470
     64 H           4.2315   -3.7190    0.0000 H       1  UNL1        0.0287
     65 H           4.9025   -3.2528    0.0000 H       1  UNL1        0.0287
     66 H           2.1165    0.1708    0.0000 H       1  UNL1        0.0602
     67 H           7.8033   -1.6309    0.0000 H       1  UNL1        0.0433
     68 H           8.6004   -1.6279    0.0000 H       1  UNL1        0.0433
     69 H           4.6751    0.0019    0.0000 H       1  UNL1        0.0294
     70 H           4.5241    0.7827    0.0000 H       1  UNL1        0.0294
     71 H           2.7121   -3.2960    0.0000 H       1  UNL1        0.0427
     72 H           3.4010   -3.7354    0.0000 H       1  UNL1        0.0427
     73 H           8.0473    1.9100    0.0000 H       1  UNL1        0.0294
     74 H           7.2907    2.1551    0.0000 H       1  UNL1        0.0294
     75 H           1.3891   -1.5933    0.0000 H       1  UNL1        0.0427
     76 H           1.7909   -2.2831    0.0000 H       1  UNL1        0.0427
     77 H           1.7909   -0.0741    0.0000 H       1  UNL1        0.0303
     78 H           1.3891   -0.7639    0.0000 H       1  UNL1        0.0303
     79 H           7.9520    2.4665    0.0000 H       1  UNL1        0.0323
     80 H           7.5635    1.7691    0.0000 H       1  UNL1        0.0323
     81 H          11.0436   -0.3263    0.0000 H       1  UNL1        0.0290
     82 H          11.0044    0.4899    0.0000 H       1  UNL1        0.0290
     83 H           9.8790   -1.3899    0.0000 H       1  UNL1        0.0427
     84 H          10.6169   -1.0390    0.0000 H       1  UNL1        0.0427
     85 H           3.8861    1.5368    0.0000 H       1  UNL1        0.0560
     86 H           3.0754    1.7234    0.0000 H       1  UNL1        0.0560
     87 H           6.3676    1.9703    0.0000 H       1  UNL1        0.0560
     88 H           5.8125    1.3506    0.0000 H       1  UNL1        0.0560
     89 H           3.8627   -3.9613    0.0000 H       1  UNL1        0.0621
     90 H          11.1540    2.8030    0.0000 H       1  UNL1        0.1519
     91 H           4.6527   -5.4205    0.0000 H       1  UNL1        0.0619
     92 H           6.3117   -5.4532    0.0000 H       1  UNL1        0.0655
     93 H          11.0015   -0.9515    0.0000 H       1  UNL1        0.0621
     94 H          12.9979    1.7792    0.0000 H       1  UNL1        0.0636
     95 H          12.6928   -1.1475    0.0000 H       1  UNL1        0.0618
     96 H          13.6978    0.2270    0.0000 H       1  UNL1        0.0618
     97 H           7.4920   -5.2050    0.0000 H       1  UNL1        0.0660
     98 H           8.3371   -5.4388    0.0000 H       1  UNL1        0.0660
     99 H           8.5709   -4.5938    0.0000 H       1  UNL1        0.0660
    100 H           8.8029    4.9162    0.0000 H       1  UNL1        0.0661
    101 H           8.1782    5.5314    0.0000 H       1  UNL1        0.0661
    102 H           7.5630    4.9067    0.0000 H       1  UNL1        0.0661
@<TRIPOS>BOND
     1     1    19    1
     2     1    38    1
     3     2    23    1
     4     2    36    1
     5     3    42    1
     6     3    51    1
     7     4    47    1
     8     4    52    1
     9     5    47    2
    10     6    11    1
    11     6    21    1
    12     6    29    1
    13     7    12    1
    14     7    28    1
    15     7    31    1
    16     8    20    1
    17     8    24    1
    18     8    35    1
    19     9    37    1
    20     9    43    1
    21     9    90    1
    22    10    11    1
    23    10    12    1
    24    10    22    1
    25    10    25    1
    26    11    14    1
    27    11    53    1
    28    12    13    1
    29    12    54    1
    30    13    16    1
    31    13    23    1
    32    13    27    1
    33    14    16    1
    34    14    18    1
    35    14    55    1
    36    15    18    1
    37    15    19    1
    38    15    21    1
    39    15    24    1
    40    16    56    1
    41    16    57    1
    42    17    19    1
    43    17    20    1
    44    17    30    1
    45    17    33    1
    46    18    58    1
    47    18    59    1
    48    19    60    1
    49    20    26    1
    50    20    61    1
    51    21    62    1
    52    21    63    1
    53    22    28    1
    54    22    64    1
    55    22    65    1
    56    23    32    1
    57    23    66    1
    58    24    67    1
    59    24    68    1
    60    25    29   ar
    61    25    41   ar
    62    26    34    1
    63    26    37    1
    64    26    40    1
    65    27    36    1
    66    27    69    1
    67    27    70    1
    68    28    71    1
    69    28    72    1
    70    29    42   ar
    71    30    38    1
    72    30    73    1
    73    30    74    1
    74    31    32    1
    75    31    75    1
    76    31    76    1
    77    32    77    1
    78    32    78    1
    79    33    39    1
    80    33    79    1
    81    33    80    1
    82    34    35    1
    83    34    81    1
    84    34    82    1
    85    35    83    1
    86    35    84    1
    87    36    85    1
    88    36    86    1
    89    37    39    2
    90    38    87    1
    91    38    88    1
    92    39    47    1
    93    40    43   ar
    94    40    46   ar
    95    41    44   ar
    96    41    89    1
    97    42    45   ar
    98    43    48   ar
    99    44    45   ar
   100    44    91    1
   101    45    92    1
   102    46    49   ar
   103    46    93    1
   104    48    50   ar
   105    48    94    1
   106    49    50   ar
   107    49    95    1
   108    50    96    1
   109    51    97    1
   110    51    98    1
   111    51    99    1
   112    52   100    1
   113    52   101    1
   114    52   102    1
