@<TRIPOS>MOLECULE
IMPHY005430
 30 32 0 0 0
SMALL
GASTEIGER

@<TRIPOS>ATOM
      1 O           6.0682   -0.4400    0.0000 O.2     1  UNL1       -0.4508
      2 O           7.8003    1.5600    0.0000 O.3     1  UNL1       -0.5007
      3 O           6.0682    2.5600    0.0000 O.2     1  UNL1       -0.2831
      4 O           2.5381   -0.4642    0.0000 O.3     1  UNL1       -0.5066
      5 O          10.3984   -1.9400    0.0000 O.3     1  UNL1       -0.5068
      6 C           5.2022    1.0600    0.0000 C.ar    1  UNL1        0.0679
      7 C           6.9343    0.0600    0.0000 C.ar    1  UNL1        0.1806
      8 C           5.2022    0.0600    0.0000 C.ar    1  UNL1        0.1430
      9 C           7.8003   -0.4400    0.0000 C.ar    1  UNL1        0.0213
     10 C           6.9343    1.0600    0.0000 C.ar    1  UNL1        0.2081
     11 C           6.0682    1.5600    0.0000 C.ar    1  UNL1        0.2343
     12 C           4.3083    1.5947    0.0000 C.ar    1  UNL1       -0.0438
     13 C           4.3083   -0.4747    0.0000 C.ar    1  UNL1        0.0229
     14 C           3.4022    0.0392    0.0000 C.ar    1  UNL1        0.1204
     15 C           7.8003   -1.4400    0.0000 C.ar    1  UNL1       -0.0475
     16 C           8.6663    0.0600    0.0000 C.ar    1  UNL1       -0.0475
     17 C           3.4022    1.0808    0.0000 C.ar    1  UNL1       -0.0193
     18 C           8.6663   -1.9400    0.0000 C.ar    1  UNL1       -0.0195
     19 C           9.5323   -0.4400    0.0000 C.ar    1  UNL1       -0.0195
     20 C           9.5323   -1.4400    0.0000 C.ar    1  UNL1        0.1169
     21 H           4.3154    2.2146    0.0000 H       1  UNL1        0.0627
     22 H           4.3154   -1.0946    0.0000 H       1  UNL1        0.0691
     23 H           7.2634   -1.7500    0.0000 H       1  UNL1        0.0626
     24 H           8.6663    0.6800    0.0000 H       1  UNL1        0.0626
     25 H           2.8665    1.3929    0.0000 H       1  UNL1        0.0654
     26 H           8.6663   -2.5600    0.0000 H       1  UNL1        0.0654
     27 H          10.0693   -0.1300    0.0000 H       1  UNL1        0.0654
     28 H           7.8003    2.1800    0.0000 H       1  UNL1        0.2924
     29 H           2.0000   -0.1562    0.0000 H       1  UNL1        0.2921
     30 H          10.3984   -2.5600    0.0000 H       1  UNL1        0.2921
@<TRIPOS>BOND
     1     1     7   ar
     2     1     8   ar
     3     2    10    1
     4     2    28    1
     5     3    11    2
     6     4    14    1
     7     4    29    1
     8     5    20    1
     9     5    30    1
    10     6     8   ar
    11     6    11   ar
    12     6    12   ar
    13     7     9    1
    14     7    10   ar
    15     8    13   ar
    16     9    15   ar
    17     9    16   ar
    18    10    11   ar
    19    12    17   ar
    20    12    21    1
    21    13    14   ar
    22    13    22    1
    23    14    17   ar
    24    15    18   ar
    25    15    23    1
    26    16    19   ar
    27    16    24    1
    28    17    25    1
    29    18    20   ar
    30    18    26    1
    31    19    20   ar
    32    19    27    1
