@<TRIPOS>MOLECULE
IMPHY000488
 25 27 0 0 0
SMALL
GASTEIGER

@<TRIPOS>ATOM
      1 C           5.1859    2.4994    0.0000 C.ar    1  UNL1        0.1545
      2 C           5.1859    1.5020    0.0000 C.ar    1  UNL1        0.1125
      3 O           6.0556    3.0041    0.0000 O.2     1  UNL1       -0.4531
      4 C           4.3250    3.0041    0.0000 C.ar    1  UNL1        0.0754
      5 C           6.0527    0.9974    0.0000 C.ar    1  UNL1        0.2048
      6 C           4.3221    1.0063    0.0000 C.ar    1  UNL1        0.2048
      7 C           6.9254    2.5054    0.0000 C.ar    1  UNL1        0.1484
      8 C           3.4642    2.5054    0.0000 C.ar    1  UNL1        0.1548
      9 C           6.9254    1.5020    0.0000 C.ar    1  UNL1        0.0797
     10 O           6.0527    0.0000    0.0000 O.2     1  UNL1       -0.2862
     11 C           3.4642    1.5050    0.0000 C.ar    1  UNL1        0.0799
     12 O           4.3191    0.0059    0.0000 O.3     1  UNL1       -0.2862
     13 C           7.7922    3.0070    0.0000 C.ar    1  UNL1        0.0349
     14 O           2.5974    3.0041    0.0000 O.3     1  UNL1       -0.4222
     15 C           7.7892    4.0074    0.0000 C.ar    1  UNL1        0.0063
     16 C           8.6590    2.5083    0.0000 C.ar    1  UNL1        0.0063
     17 C           1.7306    2.5054    0.0000 C.2     1  UNL1        0.3522
     18 C           8.6560    4.5061    0.0000 C.ar    1  UNL1        0.0421
     19 C           9.5228    3.0070    0.0000 C.ar    1  UNL1        0.0421
     20 C           0.8638    3.0041    0.0000 C.3     1  UNL1        0.2502
     21 O           1.7306    1.5050    0.0000 O.2     1  UNL1       -0.2469
     22 C           9.5228    4.0074    0.0000 C.ar    1  UNL1        0.1957
     23 O           0.0000    2.5024    0.0000 O.3     1  UNL1       -0.2111
     24 C           0.8638    4.0044    0.0000 C.3     1  UNL1        0.0478
     25 O          10.3896    4.5091    0.0000 O.3     1  UNL1       -0.2866
@<TRIPOS>BOND
     1     1     2   ar
     2     1     3   ar
     3     1     4   ar
     4     2     5   ar
     5     2     6   ar
     6     3     7   ar
     7     4     8   ar
     8     5     9   ar
     9     5    10    2
    10     6    11   ar
    11     6    12    1
    12     7     9   ar
    13     7    13    1
    14     8    11   ar
    15     8    14    1
    16    13    15   ar
    17    13    16   ar
    18    14    17    1
    19    15    18   ar
    20    16    19   ar
    21    17    20    1
    22    17    21    2
    23    18    22   ar
    24    19    22   ar
    25    20    23    1
    26    20    24    1
    27    22    25    1
