@<TRIPOS>MOLECULE
IMPHY008304
 84 83 0 0 0
SMALL
GASTEIGER

@<TRIPOS>ATOM
      1 O          13.2583   -0.5950    0.0000 O.3     1  UNL1       -0.3918
      2 C          13.2583    0.4050    0.0000 C.3     1  UNL1        0.0553
      3 C          14.1244    0.9050    0.0000 C.3     1  UNL1       -0.0269
      4 C          12.3923    0.9050    0.0000 C.3     1  UNL1       -0.0269
      5 C          14.9904    0.4050    0.0000 C.3     1  UNL1       -0.0507
      6 C          11.5263    0.4050    0.0000 C.3     1  UNL1       -0.0507
      7 C          15.8564    0.9050    0.0000 C.3     1  UNL1       -0.0530
      8 C          10.6603    0.9050    0.0000 C.3     1  UNL1       -0.0530
      9 C          16.7224    0.4050    0.0000 C.3     1  UNL1       -0.0531
     10 C           9.7942    0.4050    0.0000 C.3     1  UNL1       -0.0531
     11 C          17.5885    0.9050    0.0000 C.3     1  UNL1       -0.0531
     12 C           8.9282    0.9050    0.0000 C.3     1  UNL1       -0.0531
     13 C          18.4545    0.4050    0.0000 C.3     1  UNL1       -0.0531
     14 C           8.0622    0.4050    0.0000 C.3     1  UNL1       -0.0531
     15 C          19.3205    0.9050    0.0000 C.3     1  UNL1       -0.0531
     16 C           7.1962    0.9050    0.0000 C.3     1  UNL1       -0.0531
     17 C          20.1865    0.4050    0.0000 C.3     1  UNL1       -0.0531
     18 C           6.3301    0.4050    0.0000 C.3     1  UNL1       -0.0531
     19 C          21.0526    0.9050    0.0000 C.3     1  UNL1       -0.0531
     20 C           5.4641    0.9050    0.0000 C.3     1  UNL1       -0.0531
     21 C          21.9186    0.4050    0.0000 C.3     1  UNL1       -0.0531
     22 C           4.5981    0.4050    0.0000 C.3     1  UNL1       -0.0531
     23 C          22.7846    0.9050    0.0000 C.3     1  UNL1       -0.0533
     24 C           3.7320    0.9050    0.0000 C.3     1  UNL1       -0.0533
     25 C          23.6506    0.4050    0.0000 C.3     1  UNL1       -0.0559
     26 C           2.8660    0.4050    0.0000 C.3     1  UNL1       -0.0559
     27 C          24.5167    0.9050    0.0000 C.3     1  UNL1       -0.0653
     28 C           2.0000    0.9050    0.0000 C.3     1  UNL1       -0.0653
     29 H          13.7953    0.0950    0.0000 H       1  UNL1        0.0593
     30 H          14.5229    1.3800    0.0000 H       1  UNL1        0.0290
     31 H          13.7258    1.3800    0.0000 H       1  UNL1        0.0290
     32 H          12.7908    1.3800    0.0000 H       1  UNL1        0.0290
     33 H          11.9938    1.3800    0.0000 H       1  UNL1        0.0290
     34 H          14.5919   -0.0699    0.0000 H       1  UNL1        0.0266
     35 H          15.3889   -0.0699    0.0000 H       1  UNL1        0.0266
     36 H          11.1278   -0.0699    0.0000 H       1  UNL1        0.0266
     37 H          11.9248   -0.0699    0.0000 H       1  UNL1        0.0266
     38 H          16.2549    1.3800    0.0000 H       1  UNL1        0.0265
     39 H          15.4579    1.3800    0.0000 H       1  UNL1        0.0265
     40 H          11.0588    1.3800    0.0000 H       1  UNL1        0.0265
     41 H          10.2617    1.3800    0.0000 H       1  UNL1        0.0265
     42 H          16.3239   -0.0699    0.0000 H       1  UNL1        0.0265
     43 H          17.1210   -0.0699    0.0000 H       1  UNL1        0.0265
     44 H           9.3957   -0.0699    0.0000 H       1  UNL1        0.0265
     45 H          10.1928   -0.0699    0.0000 H       1  UNL1        0.0265
     46 H          17.9870    1.3800    0.0000 H       1  UNL1        0.0265
     47 H          17.1899    1.3800    0.0000 H       1  UNL1        0.0265
     48 H           9.3267    1.3800    0.0000 H       1  UNL1        0.0265
     49 H           8.5297    1.3800    0.0000 H       1  UNL1        0.0265
     50 H          18.0560   -0.0699    0.0000 H       1  UNL1        0.0265
     51 H          18.8530   -0.0699    0.0000 H       1  UNL1        0.0265
     52 H           7.6636   -0.0699    0.0000 H       1  UNL1        0.0265
     53 H           8.4607   -0.0699    0.0000 H       1  UNL1        0.0265
     54 H          19.7190    1.3800    0.0000 H       1  UNL1        0.0265
     55 H          18.9220    1.3800    0.0000 H       1  UNL1        0.0265
     56 H           7.5947    1.3800    0.0000 H       1  UNL1        0.0265
     57 H           6.7976    1.3800    0.0000 H       1  UNL1        0.0265
     58 H          19.7880   -0.0699    0.0000 H       1  UNL1        0.0265
     59 H          20.5851   -0.0699    0.0000 H       1  UNL1        0.0265
     60 H           5.9316   -0.0699    0.0000 H       1  UNL1        0.0265
     61 H           6.7287   -0.0699    0.0000 H       1  UNL1        0.0265
     62 H          21.4511    1.3800    0.0000 H       1  UNL1        0.0265
     63 H          20.6540    1.3800    0.0000 H       1  UNL1        0.0265
     64 H           5.8626    1.3800    0.0000 H       1  UNL1        0.0265
     65 H           5.0656    1.3800    0.0000 H       1  UNL1        0.0265
     66 H          21.5201   -0.0699    0.0000 H       1  UNL1        0.0265
     67 H          22.3171   -0.0699    0.0000 H       1  UNL1        0.0265
     68 H           4.1996   -0.0699    0.0000 H       1  UNL1        0.0265
     69 H           4.9966   -0.0699    0.0000 H       1  UNL1        0.0265
     70 H          12.7214   -0.9050    0.0000 H       1  UNL1        0.2098
     71 H          23.1831    1.3800    0.0000 H       1  UNL1        0.0265
     72 H          22.3861    1.3800    0.0000 H       1  UNL1        0.0265
     73 H           4.1306    1.3800    0.0000 H       1  UNL1        0.0265
     74 H           3.3335    1.3800    0.0000 H       1  UNL1        0.0265
     75 H          23.2521   -0.0699    0.0000 H       1  UNL1        0.0263
     76 H          24.0492   -0.0699    0.0000 H       1  UNL1        0.0263
     77 H           2.4675   -0.0699    0.0000 H       1  UNL1        0.0263
     78 H           3.2646   -0.0699    0.0000 H       1  UNL1        0.0263
     79 H          24.8267    0.3681    0.0000 H       1  UNL1        0.0230
     80 H          25.0536    1.2150    0.0000 H       1  UNL1        0.0230
     81 H          24.2067    1.4419    0.0000 H       1  UNL1        0.0230
     82 H           2.3100    1.4419    0.0000 H       1  UNL1        0.0230
     83 H           1.4631    1.2150    0.0000 H       1  UNL1        0.0230
     84 H           1.6900    0.3681    0.0000 H       1  UNL1        0.0230
@<TRIPOS>BOND
     1     1     2    1
     2     1    70    1
     3     2     3    1
     4     2     4    1
     5     2    29    1
     6     3     5    1
     7     3    30    1
     8     3    31    1
     9     4     6    1
    10     4    32    1
    11     4    33    1
    12     5     7    1
    13     5    34    1
    14     5    35    1
    15     6     8    1
    16     6    36    1
    17     6    37    1
    18     7     9    1
    19     7    38    1
    20     7    39    1
    21     8    10    1
    22     8    40    1
    23     8    41    1
    24     9    11    1
    25     9    42    1
    26     9    43    1
    27    10    12    1
    28    10    44    1
    29    10    45    1
    30    11    13    1
    31    11    46    1
    32    11    47    1
    33    12    14    1
    34    12    48    1
    35    12    49    1
    36    13    15    1
    37    13    50    1
    38    13    51    1
    39    14    16    1
    40    14    52    1
    41    14    53    1
    42    15    17    1
    43    15    54    1
    44    15    55    1
    45    16    18    1
    46    16    56    1
    47    16    57    1
    48    17    19    1
    49    17    58    1
    50    17    59    1
    51    18    20    1
    52    18    60    1
    53    18    61    1
    54    19    21    1
    55    19    62    1
    56    19    63    1
    57    20    22    1
    58    20    64    1
    59    20    65    1
    60    21    23    1
    61    21    66    1
    62    21    67    1
    63    22    24    1
    64    22    68    1
    65    22    69    1
    66    23    25    1
    67    23    71    1
    68    23    72    1
    69    24    26    1
    70    24    73    1
    71    24    74    1
    72    25    27    1
    73    25    75    1
    74    25    76    1
    75    26    28    1
    76    26    77    1
    77    26    78    1
    78    27    79    1
    79    27    80    1
    80    27    81    1
    81    28    82    1
    82    28    83    1
    83    28    84    1
