@<TRIPOS>MOLECULE
IMPHY001735
 86 91 0 0 0
SMALL
GASTEIGER

@<TRIPOS>ATOM
      1 O          10.9593    2.1001    0.0000 O.3     1  UNL1       -0.3444
      2 O          11.8253    0.6001    0.0000 O.3     1  UNL1       -0.3539
      3 O           2.5357   -2.6402    0.0000 O.3     1  UNL1       -0.3912
      4 C           8.3092   -0.4484    0.0000 C.3     1  UNL1       -0.0233
      5 C           7.3738   -0.9981    0.0000 C.3     1  UNL1       -0.0231
      6 C           8.3172    0.5932    0.0000 C.3     1  UNL1       -0.0313
      7 C           9.2273    1.1001    0.0000 C.3     1  UNL1       -0.0222
      8 C           6.4342   -0.4556    0.0000 C.3     1  UNL1       -0.0294
      9 C          10.0933    0.6001    0.0000 C.3     1  UNL1        0.0253
     10 C           5.4468   -1.0055    0.0000 C.3     1  UNL1       -0.0252
     11 C           9.2113   -0.9692    0.0000 C.3     1  UNL1       -0.0462
     12 C           7.3904    1.1573    0.0000 C.3     1  UNL1       -0.0491
     13 C           5.4381   -2.1357    0.0000 C.3     1  UNL1       -0.0278
     14 C           9.2273    2.1001    0.0000 C.3     1  UNL1       -0.0111
     15 C          10.1093   -0.4414    0.0000 C.3     1  UNL1       -0.0420
     16 C           6.4425    0.6294    0.0000 C.3     1  UNL1       -0.0489
     17 C           7.3912   -2.1281    0.0000 C.3     1  UNL1       -0.0466
     18 C          10.0933    2.6001    0.0000 C.3     1  UNL1        0.0726
     19 C           9.6933    1.2001    0.0000 C.3     1  UNL1       -0.0399
     20 C           6.4169   -2.7008    0.0000 C.3     1  UNL1       -0.0486
     21 C          10.9593    1.1001    0.0000 C.3     1  UNL1        0.1653
     22 C           8.6441   -1.3906    0.0000 C.3     1  UNL1       -0.0588
     23 C           4.4232   -2.7321    0.0000 C.3     1  UNL1       -0.0056
     24 C           8.0166   -1.7642    0.0000 C.3     1  UNL1       -0.0588
     25 C           9.6933    2.0001    0.0000 C.3     1  UNL1       -0.0230
     26 C           4.4412   -0.3935    0.0000 C.3     1  UNL1       -0.0447
     27 C           5.4545   -0.0056    0.0000 C.3     1  UNL1       -0.0590
     28 C           3.4037   -2.1435    0.0000 C.3     1  UNL1        0.0606
     29 C           3.4128   -0.9663    0.0000 C.3     1  UNL1       -0.0258
     30 C           8.3612    2.6001    0.0000 C.3     1  UNL1       -0.0595
     31 C          10.0933    3.6001    0.0000 C.3     1  UNL1       -0.0355
     32 C           3.9265   -3.6001    0.0000 C.3     1  UNL1       -0.0572
     33 C           4.9265   -3.5962    0.0000 C.3     1  UNL1       -0.0572
     34 C          12.6914    1.1001    0.0000 C.3     1  UNL1        0.0395
     35 H           9.0484    0.1597    0.0000 H       1  UNL1        0.0309
     36 H           8.4911    1.5251    0.0000 H       1  UNL1        0.0314
     37 H           7.1719   -0.0335    0.0000 H       1  UNL1        0.0312
     38 H           8.8140   -1.4452    0.0000 H       1  UNL1        0.0271
     39 H           9.6123   -1.4421    0.0000 H       1  UNL1        0.0271
     40 H           7.7986    1.6240    0.0000 H       1  UNL1        0.0268
     41 H           7.0005    1.6393    0.0000 H       1  UNL1        0.0268
     42 H           5.4414   -2.9857    0.0000 H       1  UNL1        0.0312
     43 H           9.2273    2.7201    0.0000 H       1  UNL1        0.0329
     44 H          10.3274   -1.0218    0.0000 H       1  UNL1        0.0272
     45 H          10.7185   -0.3259    0.0000 H       1  UNL1        0.0272
     46 H           6.2380    1.2146    0.0000 H       1  UNL1        0.0268
     47 H           5.8309    0.5280    0.0000 H       1  UNL1        0.0268
     48 H           7.6092   -2.7085    0.0000 H       1  UNL1        0.0271
     49 H           8.0004   -2.0126    0.0000 H       1  UNL1        0.0271
     50 H           9.1062    1.3996    0.0000 H       1  UNL1        0.0273
     51 H          10.2867    1.3797    0.0000 H       1  UNL1        0.0273
     52 H           6.0196   -3.1767    0.0000 H       1  UNL1        0.0268
     53 H           6.8178   -3.1736    0.0000 H       1  UNL1        0.0268
     54 H          10.9593    0.4801    0.0000 H       1  UNL1        0.0915
     55 H           8.0599   -1.5983    0.0000 H       1  UNL1        0.0235
     56 H           8.8517   -1.9749    0.0000 H       1  UNL1        0.0235
     57 H           9.2283   -1.1830    0.0000 H       1  UNL1        0.0235
     58 H           7.5416   -2.1627    0.0000 H       1  UNL1        0.0235
     59 H           8.4151   -2.2391    0.0000 H       1  UNL1        0.0235
     60 H           8.4915   -1.3656    0.0000 H       1  UNL1        0.0235
     61 H           9.3155    2.4917    0.0000 H       1  UNL1        0.0293
     62 H          10.2867    1.8204    0.0000 H       1  UNL1        0.0293
     63 H           4.8494    0.0731    0.0000 H       1  UNL1        0.0271
     64 H           4.0513    0.0885    0.0000 H       1  UNL1        0.0271
     65 H           6.0745   -0.0103    0.0000 H       1  UNL1        0.0235
     66 H           5.4593    0.6144    0.0000 H       1  UNL1        0.0235
     67 H           4.8346   -0.0008    0.0000 H       1  UNL1        0.0235
     68 H           3.4025   -2.7635    0.0000 H       1  UNL1        0.0599
     69 H           3.2082   -0.3810    0.0000 H       1  UNL1        0.0290
     70 H           2.8011   -1.0677    0.0000 H       1  UNL1        0.0290
     71 H           8.6712    3.1370    0.0000 H       1  UNL1        0.0233
     72 H           7.8243    2.9101    0.0000 H       1  UNL1        0.0233
     73 H           8.0512    2.0631    0.0000 H       1  UNL1        0.0233
     74 H          10.7133    3.6001    0.0000 H       1  UNL1        0.0257
     75 H          10.0933    4.2201    0.0000 H       1  UNL1        0.0257
     76 H           9.4733    3.6001    0.0000 H       1  UNL1        0.0257
     77 H           3.3884   -3.2921    0.0000 H       1  UNL1        0.0236
     78 H           3.6186   -4.1382    0.0000 H       1  UNL1        0.0236
     79 H           4.4646   -3.9080    0.0000 H       1  UNL1        0.0236
     80 H           4.3908   -3.9083    0.0000 H       1  UNL1        0.0236
     81 H           5.2386   -4.1319    0.0000 H       1  UNL1        0.0236
     82 H           5.4622   -3.2841    0.0000 H       1  UNL1        0.0236
     83 H           2.0000   -2.3281    0.0000 H       1  UNL1        0.2098
     84 H          13.0014    0.5631    0.0000 H       1  UNL1        0.0525
     85 H          13.2283    1.4101    0.0000 H       1  UNL1        0.0525
     86 H          12.3814    1.6370    0.0000 H       1  UNL1        0.0525
@<TRIPOS>BOND
     1     1    18    1
     2     1    21    1
     3    21     2    1
     4     2    34    1
     5    28     3    1
     6     3    83    1
     7     4     5    1
     8     4     6    1
     9     4    11    1
    10     4    22    1
    11     5     8    1
    12     5    17    1
    13     5    24    1
    14     6     7    1
    15     6    12    1
    16     6    35    1
    17     7     9    1
    18     7    14    1
    19     7    36    1
    20     8    10    1
    21     8    16    1
    22     8    37    1
    23     9    15    1
    24     9    19    1
    25     9    21    1
    26    10    13    1
    27    10    26    1
    28    10    27    1
    29    11    15    1
    30    11    38    1
    31    11    39    1
    32    12    16    1
    33    12    40    1
    34    12    41    1
    35    13    20    1
    36    13    23    1
    37    13    42    1
    38    14    18    1
    39    14    30    1
    40    14    43    1
    41    15    44    1
    42    15    45    1
    43    16    46    1
    44    16    47    1
    45    17    20    1
    46    17    48    1
    47    17    49    1
    48    18    25    1
    49    18    31    1
    50    19    25    1
    51    19    50    1
    52    19    51    1
    53    20    52    1
    54    20    53    1
    55    21    54    1
    56    22    55    1
    57    22    56    1
    58    22    57    1
    59    23    28    1
    60    23    32    1
    61    23    33    1
    62    24    58    1
    63    24    59    1
    64    24    60    1
    65    25    61    1
    66    25    62    1
    67    26    29    1
    68    26    63    1
    69    26    64    1
    70    27    65    1
    71    27    66    1
    72    27    67    1
    73    28    29    1
    74    28    68    1
    75    29    69    1
    76    29    70    1
    77    30    71    1
    78    30    72    1
    79    30    73    1
    80    31    74    1
    81    31    75    1
    82    31    76    1
    83    32    77    1
    84    32    78    1
    85    32    79    1
    86    33    80    1
    87    33    81    1
    88    33    82    1
    89    34    84    1
    90    34    85    1
    91    34    86    1
