@<TRIPOS>MOLECULE
IMPHY004000
 83 89 0 0 0
SMALL
GASTEIGER

@<TRIPOS>ATOM
      1 O           7.6032    4.1129    0.0000 O.3     1  UNL1       -0.3877
      2 O           9.3586   -1.0692    0.0000 O.3     1  UNL1       -0.3360
      3 O          11.2253    0.0085    0.0000 O.3     1  UNL1       -0.3407
      4 O           8.1926   -0.1208    0.0000 O.2     1  UNL1       -0.3004
      5 O           2.4774    3.7922    0.0000 O.3     1  UNL1       -0.4571
      6 O          12.2210   -1.6263    0.0000 O.3     1  UNL1       -0.3434
      7 O           9.4280   -2.1189    0.0000 O.3     1  UNL1       -0.3581
      8 O           9.4049   -3.2389    0.0000 O.3     1  UNL1       -0.4558
      9 O           2.0000    2.0753    0.0000 O.2     1  UNL1       -0.2456
     10 O          10.2535   -4.7488    0.0000 O.2     1  UNL1       -0.2512
     11 C           6.7334    3.6196    0.0000 C.3     1  UNL1        0.0751
     12 C           7.6273    3.0849    0.0000 C.3     1  UNL1       -0.0079
     13 C           7.6273    2.0849    0.0000 C.3     1  UNL1       -0.0231
     14 C           5.8273    3.1058    0.0000 C.3     1  UNL1        0.0036
     15 C           8.4934    1.5849    0.0000 C.3     1  UNL1        0.0344
     16 C           9.3594    2.0849    0.0000 C.3     1  UNL1       -0.0262
     17 C           6.7334    1.5503    0.0000 C.3     1  UNL1       -0.0484
     18 C           5.8273    2.0641    0.0000 C.3     1  UNL1       -0.0442
     19 C           5.0650    3.8065    0.0000 C.3     1  UNL1       -0.0081
     20 C           8.4934    3.5849    0.0000 C.3     1  UNL1       -0.0470
     21 C           6.5233    4.6335    0.0000 C.3     1  UNL1       -0.0226
     22 C           9.3594    3.0849    0.0000 C.3     1  UNL1       -0.0489
     23 C           5.4943    4.7488    0.0000 C.3     1  UNL1       -0.0432
     24 C           8.4773    0.5434    0.0000 C.3     1  UNL1       -0.0114
     25 C          10.2694    1.5781    0.0000 C.3     1  UNL1       -0.0203
     26 C           4.9575    2.6124    0.0000 C.3     1  UNL1       -0.0564
     27 C           9.3753    0.0157    0.0000 C.3     1  UNL1        0.0893
     28 C          10.2774    0.5365    0.0000 C.3     1  UNL1        0.0884
     29 C           7.8506    0.8189    0.0000 C.2     1  UNL1        0.1270
     30 C           4.0850    3.6078    0.0000 C.2     1  UNL1       -0.0222
     31 C          10.2940   -1.6189    0.0000 C.3     1  UNL1        0.2583
     32 C           3.3482    4.2840    0.0000 C.3     1  UNL1        0.1147
     33 C          11.2337   -1.0764    0.0000 C.3     1  UNL1        0.2181
     34 C           3.6696    2.6982    0.0000 C.2     1  UNL1        0.0252
     35 C          10.2766   -2.7489    0.0000 C.3     1  UNL1        0.1638
     36 C           2.6761    2.8121    0.0000 C.2     1  UNL1        0.3323
     37 C          11.2510   -3.3216    0.0000 C.3     1  UNL1        0.0158
     38 C          12.2297   -2.7565    0.0000 C.3     1  UNL1        0.0626
     39 C          13.0977   -3.2531    0.0000 C.3     1  UNL1       -0.0385
     40 C           9.3933   -4.2388    0.0000 C.2     1  UNL1        0.3044
     41 C           8.5216   -4.7288    0.0000 C.3     1  UNL1        0.0332
     42 H           8.3635    2.6599    0.0000 H       1  UNL1        0.0332
     43 H           7.6339    1.2350    0.0000 H       1  UNL1        0.0314
     44 H          10.0922    2.5156    0.0000 H       1  UNL1        0.0311
     45 H           6.3398    1.0713    0.0000 H       1  UNL1        0.0268
     46 H           7.1380    1.0805    0.0000 H       1  UNL1        0.0268
     47 H           5.2165    2.1702    0.0000 H       1  UNL1        0.0272
     48 H           5.6183    1.4804    0.0000 H       1  UNL1        0.0272
     49 H           4.6792    4.2918    0.0000 H       1  UNL1        0.0353
     50 H           8.8919    4.0599    0.0000 H       1  UNL1        0.0269
     51 H           8.0948    4.0599    0.0000 H       1  UNL1        0.0269
     52 H           7.1403    4.6948    0.0000 H       1  UNL1        0.0293
     53 H           6.5272    5.2535    0.0000 H       1  UNL1        0.0293
     54 H           9.9700    2.9773    0.0000 H       1  UNL1        0.0268
     55 H           9.5714    3.6676    0.0000 H       1  UNL1        0.0268
     56 H           5.6277    5.3543    0.0000 H       1  UNL1        0.0272
     57 H           4.9062    4.9451    0.0000 H       1  UNL1        0.0272
     58 H           7.8682    0.6589    0.0000 H       1  UNL1        0.0300
     59 H           8.2593   -0.0370    0.0000 H       1  UNL1        0.0300
     60 H          10.8811    1.4767    0.0000 H       1  UNL1        0.0294
     61 H          10.4739    2.1634    0.0000 H       1  UNL1        0.0294
     62 H           4.6516    3.1518    0.0000 H       1  UNL1        0.0236
     63 H           4.4182    2.3066    0.0000 H       1  UNL1        0.0236
     64 H           5.2633    2.0731    0.0000 H       1  UNL1        0.0236
     65 H           8.6344   -0.4008    0.0000 H       1  UNL1        0.0623
     66 H          11.0086    0.9700    0.0000 H       1  UNL1        0.0623
     67 H           7.2400    0.9266    0.0000 H       1  UNL1        0.1032
     68 H           7.6080    4.7329    0.0000 H       1  UNL1        0.2102
     69 H          11.9648   -0.6429    0.0000 H       1  UNL1        0.0968
     70 H           3.8128    4.6944    0.0000 H       1  UNL1        0.0746
     71 H           2.9885    4.7890    0.0000 H       1  UNL1        0.0746
     72 H           3.9745    2.1583    0.0000 H       1  UNL1        0.0689
     73 H          10.2706   -3.3689    0.0000 H       1  UNL1        0.0791
     74 H          10.8500   -3.7944    0.0000 H       1  UNL1        0.0328
     75 H          11.6483   -3.7975    0.0000 H       1  UNL1        0.0328
     76 H          12.7649   -2.4434    0.0000 H       1  UNL1        0.0595
     77 H           8.8911   -1.8089    0.0000 H       1  UNL1        0.2130
     78 H          12.7898   -3.7912    0.0000 H       1  UNL1        0.0255
     79 H          13.6358   -3.5611    0.0000 H       1  UNL1        0.0255
     80 H          13.4056   -2.7150    0.0000 H       1  UNL1        0.0255
     81 H           8.2178   -4.1883    0.0000 H       1  UNL1        0.0342
     82 H           7.9811   -5.0325    0.0000 H       1  UNL1        0.0342
     83 H           8.8253   -5.2693    0.0000 H       1  UNL1        0.0342
@<TRIPOS>BOND
     1    11     1    1
     2     1    68    1
     3     2    27    1
     4     2    31    1
     5     3    28    1
     6     3    33    1
     7     4    29    2
     8     5    32    1
     9     5    36    1
    10     6    33    1
    11     6    38    1
    12    31     7    1
    13     7    77    1
    14    35     8    1
    15     8    40    1
    16     9    36    2
    17    10    40    2
    18    11    12    1
    19    11    14    1
    20    11    21    1
    21    12    13    1
    22    12    20    1
    23    12    42    1
    24    13    15    1
    25    13    17    1
    26    13    43    1
    27    14    18    1
    28    14    19    1
    29    14    26    1
    30    15    16    1
    31    15    24    1
    32    15    29    1
    33    16    22    1
    34    16    25    1
    35    16    44    1
    36    17    18    1
    37    17    45    1
    38    17    46    1
    39    18    47    1
    40    18    48    1
    41    19    23    1
    42    19    30    1
    43    19    49    1
    44    20    22    1
    45    20    50    1
    46    20    51    1
    47    21    23    1
    48    21    52    1
    49    21    53    1
    50    22    54    1
    51    22    55    1
    52    23    56    1
    53    23    57    1
    54    24    27    1
    55    24    58    1
    56    24    59    1
    57    25    28    1
    58    25    60    1
    59    25    61    1
    60    26    62    1
    61    26    63    1
    62    26    64    1
    63    27    28    1
    64    27    65    1
    65    28    66    1
    66    29    67    1
    67    30    32    1
    68    30    34    2
    69    31    33    1
    70    31    35    1
    71    32    70    1
    72    32    71    1
    73    33    69    1
    74    34    36    1
    75    34    72    1
    76    35    37    1
    77    35    73    1
    78    37    38    1
    79    37    74    1
    80    37    75    1
    81    38    39    1
    82    38    76    1
    83    39    78    1
    84    39    79    1
    85    39    80    1
    86    40    41    1
    87    41    81    1
    88    41    82    1
    89    41    83    1
