@<TRIPOS>MOLECULE
IMPHY006607
 79 83 0 0 0
SMALL
GASTEIGER

@<TRIPOS>ATOM
      1 P          10.3312   -4.2846    0.0000 P.3     1  UNL1        0.0000
      2 NA         11.1972   -5.7846    0.0000 Na      2  UNL2        0.0000
      3 NA         11.8312   -3.4186    0.0000 Na      3  UNL3        0.0000
      4 O           4.2690    0.2154    0.0000 O.3     1  UNL1        0.0000
      5 O           7.1990    1.2902    0.0000 O.3     1  UNL1        0.0000
      6 O           5.1350    1.7154    0.0000 O.3     1  UNL1        0.0000
      7 O           4.2529    4.2569    0.0000 O.3     1  UNL1        0.0000
      8 O           8.5826    0.1762    0.0000 O.2     1  UNL1        0.0000
      9 O           2.5369    1.2154    0.0000 O.3     1  UNL1        0.0000
     10 O           6.0530    4.2638    0.0000 O.3     1  UNL1        0.0000
     11 O           2.5369    3.2154    0.0000 O.3     1  UNL1        0.0000
     12 O           3.4493   -3.5279    0.0000 O.3     1  UNL1        0.0000
     13 O           4.9012   -4.3662    0.0000 O.3     1  UNL1        0.0000
     14 O          10.3312   -1.2846    0.0000 O.3     1  UNL1        0.0000
     15 O           8.5991   -4.2846    0.0000 O.3     1  UNL1        0.0000
     16 O          10.3312   -3.2846    0.0000 O.3     1  UNL1        0.0000
     17 O          10.3312   -5.2846    0.0000 O.co2   1  UNL1       -0.6600
     18 O          11.3312   -4.2846    0.0000 O.co2   1  UNL1       -0.6600
     19 O           9.3312   -4.2846    0.0000 O.2     1  UNL1       -0.6600
     20 C           6.0010    0.2154    0.0000 C.3     1  UNL1        0.0000
     21 C           6.8671   -0.2846    0.0000 C.3     1  UNL1        0.0000
     22 C           5.1350   -0.2846    0.0000 C.3     1  UNL1        0.0000
     23 C           6.8671   -1.2846    0.0000 C.3     1  UNL1        0.0000
     24 C           5.1350   -1.2846    0.0000 C.ar    1  UNL1        0.0000
     25 C           6.0010   -1.7846    0.0000 C.ar    1  UNL1        0.0000
     26 C           6.2102    1.1872    0.0000 C.3     1  UNL1        0.0000
     27 C           7.6041    0.3825    0.0000 C.2     1  UNL1        0.0000
     28 C           4.2690    1.2154    0.0000 C.3     1  UNL1        0.0000
     29 C           7.7331   -1.7846    0.0000 C.ar    1  UNL1        0.0000
     30 C           3.4030    1.7154    0.0000 C.3     1  UNL1        0.0000
     31 C           4.2690    3.2154    0.0000 C.3     1  UNL1        0.0000
     32 C           3.4030    2.7154    0.0000 C.3     1  UNL1        0.0000
     33 C           5.1350    2.7154    0.0000 C.3     1  UNL1        0.0000
     34 C           4.2250   -1.7915    0.0000 C.ar    1  UNL1        0.0000
     35 C           6.0171   -2.8261    0.0000 C.ar    1  UNL1        0.0000
     36 C           4.2170   -2.8331    0.0000 C.ar    1  UNL1        0.0000
     37 C           5.1191   -3.3539    0.0000 C.ar    1  UNL1        0.0000
     38 C           6.0450    3.2222    0.0000 C.3     1  UNL1        0.0000
     39 C           7.7331   -2.7846    0.0000 C.ar    1  UNL1        0.0000
     40 C           8.5991   -1.2846    0.0000 C.ar    1  UNL1        0.0000
     41 C           5.1510    4.7846    0.0000 C.3     1  UNL1        0.0000
     42 C           9.4651   -1.7846    0.0000 C.ar    1  UNL1        0.0000
     43 C           8.5991   -3.2846    0.0000 C.ar    1  UNL1        0.0000
     44 C           3.8713   -4.4735    0.0000 C.3     1  UNL1        0.0000
     45 C           9.4651   -2.7846    0.0000 C.ar    1  UNL1        0.0000
     46 C           5.1471    5.7846    0.0000 C.3     1  UNL1        0.0000
     47 C          11.1972   -1.7846    0.0000 C.3     1  UNL1        0.0000
     48 C           7.7331   -4.7846    0.0000 C.3     1  UNL1        0.0000
     49 H           5.3140    0.7159    0.0000 H       1  UNL1        0.0000
     50 H           7.6440   -0.6293    0.0000 H       1  UNL1        0.0000
     51 H           5.1350    0.3354    0.0000 H       1  UNL1        0.0000
     52 H           7.4040   -0.9746    0.0000 H       1  UNL1        0.0000
     53 H           6.2111    1.8072    0.0000 H       1  UNL1        0.0000
     54 H           5.5938    1.2532    0.0000 H       1  UNL1        0.0000
     55 H           3.7320    0.9054    0.0000 H       1  UNL1        0.0000
     56 H           2.8660    2.0254    0.0000 H       1  UNL1        0.0000
     57 H           3.5296    3.6347    0.0000 H       1  UNL1        0.0000
     58 H           3.4030    3.3354    0.0000 H       1  UNL1        0.0000
     59 H           5.8678    2.2847    0.0000 H       1  UNL1        0.0000
     60 H           3.6917   -1.4753    0.0000 H       1  UNL1        0.0000
     61 H           6.5576   -3.1299    0.0000 H       1  UNL1        0.0000
     62 H           6.2496    2.6369    0.0000 H       1  UNL1        0.0000
     63 H           6.6567    3.3236    0.0000 H       1  UNL1        0.0000
     64 H           7.1962   -3.0946    0.0000 H       1  UNL1        0.0000
     65 H           8.5991   -0.6646    0.0000 H       1  UNL1        0.0000
     66 H           4.6123    5.0915    0.0000 H       1  UNL1        0.0000
     67 H           2.0000    1.5254    0.0000 H       1  UNL1        0.0000
     68 H           2.5369    3.8354    0.0000 H       1  UNL1        0.0000
     69 H           3.2817   -4.6653    0.0000 H       1  UNL1        0.0000
     70 H           4.0000   -5.0800    0.0000 H       1  UNL1        0.0000
     71 H           5.7671    5.7870    0.0000 H       1  UNL1        0.0000
     72 H           5.1447    6.4046    0.0000 H       1  UNL1        0.0000
     73 H           4.5271    5.7822    0.0000 H       1  UNL1        0.0000
     74 H          10.8872   -2.3216    0.0000 H       1  UNL1        0.0000
     75 H          11.7341   -2.0946    0.0000 H       1  UNL1        0.0000
     76 H          11.5072   -1.2477    0.0000 H       1  UNL1        0.0000
     77 H           7.4231   -4.2477    0.0000 H       1  UNL1        0.0000
     78 H           7.1962   -5.0946    0.0000 H       1  UNL1        0.0000
     79 H           8.0431   -5.3216    0.0000 H       1  UNL1        0.0000
@<TRIPOS>UNITY_ATOM_ATTR
2 1
charge 1
3 1
charge 1
17 1
charge -1
18 1
charge -1
@<TRIPOS>BOND
     1     1    16    1
     2     1    17    1
     3     1    18    1
     4     1    19    2
     5    22     4    1
     6    28     4    1
     7     5    26    1
     8     5    27    1
     9     6    28    1
    10     6    33    1
    11     7    31    1
    12     7    41    1
    13     8    27    2
    14    30     9    1
    15     9    67    1
    16    10    38    1
    17    10    41    1
    18    32    11    1
    19    11    68    1
    20    12    36    1
    21    12    44    1
    22    13    37    1
    23    13    44    1
    24    14    42    1
    25    14    47    1
    26    15    43    1
    27    15    48    1
    28    16    45    1
    29    20    21    1
    30    20    22    1
    31    20    26    1
    32    20    49    1
    33    21    23    1
    34    21    27    1
    35    21    50    1
    36    22    24    1
    37    22    51    1
    38    23    25    1
    39    23    29    1
    40    23    52    1
    41    24    25   ar
    42    24    34   ar
    43    25    35   ar
    44    26    53    1
    45    26    54    1
    46    28    30    1
    47    28    55    1
    48    29    39   ar
    49    29    40   ar
    50    30    32    1
    51    30    56    1
    52    31    32    1
    53    31    33    1
    54    31    57    1
    55    32    58    1
    56    33    38    1
    57    33    59    1
    58    34    36   ar
    59    34    60    1
    60    35    37   ar
    61    35    61    1
    62    36    37   ar
    63    38    62    1
    64    38    63    1
    65    39    43   ar
    66    39    64    1
    67    40    42   ar
    68    40    65    1
    69    41    46    1
    70    41    66    1
    71    42    45   ar
    72    43    45   ar
    73    44    69    1
    74    44    70    1
    75    46    71    1
    76    46    72    1
    77    46    73    1
    78    47    74    1
    79    47    75    1
    80    47    76    1
    81    48    77    1
    82    48    78    1
    83    48    79    1
