@<TRIPOS>MOLECULE
IMPHY003206
 34 35 0 0 0
SMALL
GASTEIGER

@<TRIPOS>ATOM
      1 O           2.0000   -0.2342    0.0000 O.co2   1  UNL1       -0.8736
      2 N           7.1441    1.6778    0.0000 N.4     1  UNL1        0.2371
      3 N           5.5443   -2.0390    0.0000 N.ar    1  UNL1       -0.3604
      4 C           6.8335    0.7272    0.0000 C.3     1  UNL1       -0.0267
      5 C           5.8550    0.5210    0.0000 C.3     1  UNL1        0.0147
      6 C           7.4548    2.6283    0.0000 C.3     1  UNL1       -0.0418
      7 C           8.0946    1.3671    0.0000 C.3     1  UNL1       -0.0418
      8 C           6.1936    1.9884    0.0000 C.3     1  UNL1       -0.0418
      9 C           5.5443   -0.4295    0.0000 C.ar    1  UNL1       -0.0174
     10 C           4.5981   -0.7342    0.0000 C.ar    1  UNL1        0.0024
     11 C           6.1279   -1.2342    0.0000 C.ar    1  UNL1        0.0061
     12 C           4.5981   -1.7342    0.0000 C.ar    1  UNL1        0.0467
     13 C           3.7320   -0.2342    0.0000 C.ar    1  UNL1       -0.0601
     14 C           3.7320   -2.2342    0.0000 C.ar    1  UNL1       -0.0384
     15 C           2.8660   -0.7342    0.0000 C.ar    1  UNL1       -0.1078
     16 C           2.8660   -1.7342    0.0000 C.ar    1  UNL1       -0.0675
     17 H           6.8540    0.1076    0.0000 H       1  UNL1        0.0818
     18 H           7.4473    0.6399    0.0000 H       1  UNL1        0.0818
     19 H           5.8344    1.1407    0.0000 H       1  UNL1        0.0366
     20 H           5.2411    0.6084    0.0000 H       1  UNL1        0.0366
     21 H           6.3862    2.5778    0.0000 H       1  UNL1        0.0778
     22 H           5.6043    2.1810    0.0000 H       1  UNL1        0.0778
     23 H           6.0010    1.3991    0.0000 H       1  UNL1        0.0778
     24 H           7.9020    0.7778    0.0000 H       1  UNL1        0.0778
     25 H           8.6840    1.1745    0.0000 H       1  UNL1        0.0778
     26 H           8.2873    1.9564    0.0000 H       1  UNL1        0.0778
     27 H           8.0441    2.4357    0.0000 H       1  UNL1        0.0778
     28 H           7.6474    3.2176    0.0000 H       1  UNL1        0.0778
     29 H           6.8655    2.8209    0.0000 H       1  UNL1        0.0778
     30 H           6.7479   -1.2342    0.0000 H       1  UNL1        0.0810
     31 H           5.7369   -2.6283    0.0000 H       1  UNL1        0.1653
     32 H           3.7320    0.3858    0.0000 H       1  UNL1        0.0618
     33 H           3.7320   -2.8542    0.0000 H       1  UNL1        0.0638
     34 H           2.3291   -2.0442    0.0000 H       1  UNL1        0.0612
@<TRIPOS>UNITY_ATOM_ATTR
1 1
charge -1
2 1
charge 1
@<TRIPOS>BOND
     1     1    15    1
     2     2     4    1
     3     2     6    1
     4     2     7    1
     5     2     8    1
     6     3    11   ar
     7     3    12   ar
     8     3    31    1
     9     4     5    1
    10     4    17    1
    11     4    18    1
    12     5     9    1
    13     5    19    1
    14     5    20    1
    15     6    27    1
    16     6    28    1
    17     6    29    1
    18     7    24    1
    19     7    25    1
    20     7    26    1
    21     8    21    1
    22     8    22    1
    23     8    23    1
    24     9    10   ar
    25     9    11   ar
    26    10    12   ar
    27    10    13   ar
    28    11    30    1
    29    12    14   ar
    30    13    15   ar
    31    13    32    1
    32    14    16   ar
    33    14    33    1
    34    15    16   ar
    35    16    34    1
