@<TRIPOS>MOLECULE
IMPHY017064
 25 26 0 0 0
SMALL
GASTEIGER

@<TRIPOS>ATOM
      1 O           5.5301    2.0173    0.0000 O.2     1  UNL1       -0.2671
      2 N           6.3961    0.5173    0.0000 N.ar    1  UNL1       -0.3106
      3 N           5.5301   -0.9827    0.0000 N.ar    1  UNL1       -0.2322
      4 N           2.8641   -0.5035    0.0000 N.ar    1  UNL1       -0.2549
      5 C           4.6641    0.5173    0.0000 C.ar    1  UNL1        0.0681
      6 C           4.6641   -0.4827    0.0000 C.ar    1  UNL1        0.0991
      7 C           3.7702   -1.0174    0.0000 C.ar    1  UNL1        0.0646
      8 C           3.7702    1.0520    0.0000 C.ar    1  UNL1       -0.0263
      9 C           5.5301    1.0173    0.0000 C.ar    1  UNL1        0.2593
     10 C           2.8641    0.5381    0.0000 C.ar    1  UNL1        0.0394
     11 C           6.3961   -0.4827    0.0000 C.ar    1  UNL1        0.1073
     12 C           3.7817   -2.0173    0.0000 C.3     1  UNL1       -0.0203
     13 C           2.0000    1.0414    0.0000 C.3     1  UNL1       -0.0223
     14 C           7.2622   -0.9827    0.0000 C.3     1  UNL1       -0.0064
     15 H           3.7773    1.6719    0.0000 H       1  UNL1        0.0644
     16 H           6.9331    0.8273    0.0000 H       1  UNL1        0.1700
     17 H           3.1618   -2.0245    0.0000 H       1  UNL1        0.0293
     18 H           3.7889   -2.6373    0.0000 H       1  UNL1        0.0293
     19 H           4.4017   -2.0101    0.0000 H       1  UNL1        0.0293
     20 H           2.3121    1.5772    0.0000 H       1  UNL1        0.0292
     21 H           1.4643    1.3535    0.0000 H       1  UNL1        0.0292
     22 H           1.6879    0.5057    0.0000 H       1  UNL1        0.0292
     23 H           6.9522   -1.5196    0.0000 H       1  UNL1        0.0307
     24 H           7.7991   -1.2927    0.0000 H       1  UNL1        0.0307
     25 H           7.5722   -0.4458    0.0000 H       1  UNL1        0.0307
@<TRIPOS>BOND
     1     1     9    2
     2     2     9   ar
     3     2    11   ar
     4     2    16    1
     5     3     6   ar
     6     3    11   ar
     7     4     7   ar
     8     4    10   ar
     9     5     6   ar
    10     5     8   ar
    11     5     9   ar
    12     6     7   ar
    13     7    12    1
    14     8    10   ar
    15     8    15    1
    16    10    13    1
    17    11    14    1
    18    12    17    1
    19    12    18    1
    20    12    19    1
    21    13    20    1
    22    13    21    1
    23    13    22    1
    24    14    23    1
    25    14    24    1
    26    14    25    1
