@<TRIPOS>MOLECULE
IMPHY008867
 144 150 0 0 0
SMALL
GASTEIGER

@<TRIPOS>ATOM
      1 O          10.4084    4.2172    0.0000 O.3     1  UNL1       -0.3910
      2 O           7.7331   -3.5350    0.0000 O.3     1  UNL1       -0.3448
      3 O           9.2852    6.0856    0.0000 O.3     1  UNL1       -0.3873
      4 O           7.6930    6.8584    0.0000 O.3     1  UNL1       -0.4549
      5 O           9.8296    5.6881    0.0000 O.3     1  UNL1       -0.4641
      6 O          10.1773   -2.8433    0.0000 O.3     1  UNL1       -0.3944
      7 O           6.0010   -3.5350    0.0000 O.3     1  UNL1       -0.3315
      8 O           7.7331   -5.5350    0.0000 O.3     1  UNL1       -0.3841
      9 O           5.9610    6.8450    0.0000 O.2     1  UNL1       -0.2453
     10 O           6.0010   -6.5350    0.0000 O.3     1  UNL1       -0.3400
     11 O          11.4639    5.1146    0.0000 O.2     1  UNL1       -0.2512
     12 O           4.2690   -5.5350    0.0000 O.3     1  UNL1       -0.3860
     13 O           4.2690   -2.5349    0.0000 O.3     1  UNL1       -0.4788
     14 O           3.4030   -4.0350    0.0000 O.2     1  UNL1       -0.2480
     15 O           4.2690   -6.5350    0.0000 O.3     1  UNL1       -0.3405
     16 O           6.0010   -8.5350    0.0000 O.3     1  UNL1       -0.3841
     17 O           4.2690   -9.5350    0.0000 O.3     1  UNL1       -0.3864
     18 O           2.5369   -8.5350    0.0000 O.3     1  UNL1       -0.3865
     19 O           2.5369   -5.5350    0.0000 O.3     1  UNL1       -0.3924
     20 C           8.6342    1.1653    0.0000 C.3     1  UNL1       -0.0193
     21 C           7.7701    0.6619    0.0000 C.3     1  UNL1       -0.0257
     22 C           7.7580   -0.3796    0.0000 C.3     1  UNL1       -0.0249
     23 C           8.6303    2.1653    0.0000 C.3     1  UNL1       -0.0028
     24 C           8.6581   -0.9039    0.0000 C.3     1  UNL1       -0.0255
     25 C           9.5461    0.6619    0.0000 C.3     1  UNL1       -0.0463
     26 C           7.7624    2.6619    0.0000 C.2     1  UNL1       -0.0630
     27 C           7.7423    3.7034    0.0000 C.3     1  UNL1       -0.0051
     28 C           8.6383    4.2346    0.0000 C.3     1  UNL1        0.0666
     29 C           9.5581   -0.3796    0.0000 C.3     1  UNL1       -0.0485
     30 C           8.6706   -1.9888    0.0000 C.3     1  UNL1        0.0206
     31 C           9.5383    2.6756    0.0000 C.3     1  UNL1       -0.0165
     32 C           6.9021    1.1586    0.0000 C.3     1  UNL1       -0.0306
     33 C           6.8081   -0.9039    0.0000 C.3     1  UNL1       -0.0447
     34 C           9.5424    3.7172    0.0000 C.3     1  UNL1        0.0678
     35 C           9.6183    1.3427    0.0000 C.3     1  UNL1       -0.0585
     36 C           7.7331   -2.5349    0.0000 C.3     1  UNL1        0.0695
     37 C           6.8983    2.1586    0.0000 C.2     1  UNL1       -0.0836
     38 C           6.8939    0.1237    0.0000 C.3     1  UNL1       -0.0590
     39 C           6.7884    4.2203    0.0000 C.3     1  UNL1       -0.0371
     40 C           6.7956   -1.9888    0.0000 C.3     1  UNL1       -0.0254
     41 C           9.6158    1.9954    0.0000 C.3     1  UNL1       -0.0552
     42 C           8.6424    5.3195    0.0000 C.3     1  UNL1        0.1042
     43 C           6.7674    5.3051    0.0000 C.3     1  UNL1        0.0052
     44 C           7.7007    5.8584    0.0000 C.3     1  UNL1        0.1349
     45 C           9.4985    4.7446    0.0000 C.3     1  UNL1        0.1034
     46 C           9.6706   -1.9811    0.0000 C.3     1  UNL1        0.0522
     47 C           9.1773   -2.8510    0.0000 C.3     1  UNL1       -0.0548
     48 C           5.7676    5.2897    0.0000 C.3     1  UNL1       -0.0563
     49 C           6.2542    6.1633    0.0000 C.3     1  UNL1       -0.0563
     50 C           6.8671   -4.0350    0.0000 C.3     1  UNL1        0.1888
     51 C           6.8671   -5.0350    0.0000 C.3     1  UNL1        0.1345
     52 C           6.8232    7.3517    0.0000 C.2     1  UNL1        0.3349
     53 C          10.8123    5.8732    0.0000 C.2     1  UNL1        0.3040
     54 C           6.0010   -5.5350    0.0000 C.3     1  UNL1        0.1211
     55 C           5.1350   -4.0350    0.0000 C.3     1  UNL1        0.1859
     56 C           5.1350   -5.0350    0.0000 C.3     1  UNL1        0.1205
     57 C           6.8155    8.3517    0.0000 C.2     1  UNL1        0.0293
     58 C          11.1435    6.8167    0.0000 C.3     1  UNL1        0.0332
     59 C           4.2690   -3.5350    0.0000 C.2     1  UNL1        0.3367
     60 C           7.6776    8.8583    0.0000 C.3     1  UNL1       -0.0333
     61 C           5.9456    8.8450    0.0000 C.2     1  UNL1       -0.0774
     62 C           5.1350   -7.0350    0.0000 C.3     1  UNL1        0.1884
     63 C           5.1350   -8.0350    0.0000 C.3     1  UNL1        0.1341
     64 C           5.9379    9.8450    0.0000 C.3     1  UNL1       -0.0461
     65 C           4.2690   -8.5350    0.0000 C.3     1  UNL1        0.1141
     66 C           3.4030   -7.0350    0.0000 C.3     1  UNL1        0.1130
     67 C           3.4030   -8.0350    0.0000 C.3     1  UNL1        0.1119
     68 C           2.5369   -6.5350    0.0000 C.3     1  UNL1        0.0730
     69 H           8.5045    0.2341    0.0000 H       1  UNL1        0.0315
     70 H           9.3974   -1.3232    0.0000 H       1  UNL1        0.0313
     71 H          10.1581    0.5629    0.0000 H       1  UNL1        0.0271
     72 H           9.7484    1.2480    0.0000 H       1  UNL1        0.0271
     73 H           7.0162    3.2614    0.0000 H       1  UNL1        0.0354
     74 H           9.7739   -0.9609    0.0000 H       1  UNL1        0.0268
     75 H          10.1677   -0.2665    0.0000 H       1  UNL1        0.0268
     76 H           9.7451    2.0911    0.0000 H       1  UNL1        0.0299
     77 H          10.1496    2.7794    0.0000 H       1  UNL1        0.0299
     78 H           6.2911    1.2639    0.0000 H       1  UNL1        0.0310
     79 H           6.6923    0.5752    0.0000 H       1  UNL1        0.0310
     80 H           6.6058   -0.3178    0.0000 H       1  UNL1        0.0271
     81 H           6.1961   -1.0029    0.0000 H       1  UNL1        0.0271
     82 H          10.0787    3.4062    0.0000 H       1  UNL1        0.0601
     83 H           9.7283    0.7325    0.0000 H       1  UNL1        0.0235
     84 H          10.2284    1.4527    0.0000 H       1  UNL1        0.0235
     85 H           9.5083    1.9529    0.0000 H       1  UNL1        0.0235
     86 H           8.2706   -2.8439    0.0000 H       1  UNL1        0.0603
     87 H           6.3601    2.4665    0.0000 H       1  UNL1        0.0572
     88 H           7.2060    0.6594    0.0000 H       1  UNL1        0.0235
     89 H           6.3582    0.4358    0.0000 H       1  UNL1        0.0235
     90 H           6.5818   -0.4120    0.0000 H       1  UNL1        0.0235
     91 H           6.1756    4.3146    0.0000 H       1  UNL1        0.0278
     92 H           6.5906    3.6327    0.0000 H       1  UNL1        0.0278
     93 H           6.1860   -1.8757    0.0000 H       1  UNL1        0.0290
     94 H           6.5798   -2.5701    0.0000 H       1  UNL1        0.0290
     95 H           9.5105    1.3844    0.0000 H       1  UNL1        0.0238
     96 H          10.2268    1.8901    0.0000 H       1  UNL1        0.0238
     97 H           9.7211    2.6064    0.0000 H       1  UNL1        0.0238
     98 H           9.2246    5.1064    0.0000 H       1  UNL1        0.0638
     99 H           8.2359    6.1715    0.0000 H       1  UNL1        0.0766
    100 H           9.6484    4.1430    0.0000 H       1  UNL1        0.0705
    101 H          10.1178    4.7157    0.0000 H       1  UNL1        0.0705
    102 H          10.2516   -1.7646    0.0000 H       1  UNL1        0.0563
    103 H           9.5582   -1.3714    0.0000 H       1  UNL1        0.0563
    104 H           8.6428   -3.1651    0.0000 H       1  UNL1        0.0237
    105 H           9.4914   -3.3855    0.0000 H       1  UNL1        0.0237
    106 H           9.7118   -2.5368    0.0000 H       1  UNL1        0.0237
    107 H          10.9453    3.9072    0.0000 H       1  UNL1        0.2098
    108 H           6.7862    6.4816    0.0000 H       1  UNL1        0.0236
    109 H           5.9359    6.6954    0.0000 H       1  UNL1        0.0236
    110 H           5.7220    5.8451    0.0000 H       1  UNL1        0.0236
    111 H           5.7580    5.9096    0.0000 H       1  UNL1        0.0236
    112 H           5.1476    5.2801    0.0000 H       1  UNL1        0.0236
    113 H           5.7771    4.6697    0.0000 H       1  UNL1        0.0236
    114 H           9.0732    6.6682    0.0000 H       1  UNL1        0.2100
    115 H           6.8671   -3.4150    0.0000 H       1  UNL1        0.0938
    116 H          10.7972   -2.8385    0.0000 H       1  UNL1        0.2094
    117 H           7.4040   -4.7250    0.0000 H       1  UNL1        0.0671
    118 H           6.5380   -5.8450    0.0000 H       1  UNL1        0.0652
    119 H           5.1350   -3.4150    0.0000 H       1  UNL1        0.0741
    120 H           4.5981   -4.7250    0.0000 H       1  UNL1        0.0652
    121 H          11.7285    6.6114    0.0000 H       1  UNL1        0.0342
    122 H          11.3488    7.4018    0.0000 H       1  UNL1        0.0342
    123 H          10.5584    7.0220    0.0000 H       1  UNL1        0.0342
    124 H           7.7331   -6.1550    0.0000 H       1  UNL1        0.2101
    125 H           7.9917    8.3238    0.0000 H       1  UNL1        0.0280
    126 H           8.2121    9.1725    0.0000 H       1  UNL1        0.0280
    127 H           7.3635    9.3929    0.0000 H       1  UNL1        0.0280
    128 H           3.7320   -5.2250    0.0000 H       1  UNL1        0.2100
    129 H           5.4111    8.5308    0.0000 H       1  UNL1        0.0574
    130 H           5.1350   -6.4150    0.0000 H       1  UNL1        0.0938
    131 H           5.1350   -8.6550    0.0000 H       1  UNL1        0.0671
    132 H           6.5579    9.8497    0.0000 H       1  UNL1        0.0272
    133 H           5.9331   10.4649    0.0000 H       1  UNL1        0.0272
    134 H           5.3179    9.8402    0.0000 H       1  UNL1        0.0272
    135 H           3.7320   -2.2250    0.0000 H       1  UNL1        0.2951
    136 H           3.7320   -8.8450    0.0000 H       1  UNL1        0.0648
    137 H           3.4030   -6.4150    0.0000 H       1  UNL1        0.0647
    138 H           2.8660   -7.7250    0.0000 H       1  UNL1        0.0647
    139 H           6.0010   -9.1550    0.0000 H       1  UNL1        0.2101
    140 H           1.9264   -6.4273    0.0000 H       1  UNL1        0.0584
    141 H           2.3249   -7.1176    0.0000 H       1  UNL1        0.0584
    142 H           3.7320   -9.8450    0.0000 H       1  UNL1        0.2100
    143 H           2.0000   -8.2250    0.0000 H       1  UNL1        0.2100
    144 H           2.0000   -5.2250    0.0000 H       1  UNL1        0.2095
@<TRIPOS>BOND
     1    34     1    1
     2     1   107    1
     3    36     2    1
     4    50     2    1
     5    42     3    1
     6     3   114    1
     7    44     4    1
     8     4    52    1
     9     5    45    1
    10     5    53    1
    11     6    46    1
    12     6   116    1
    13     7    50    1
    14     7    55    1
    15    51     8    1
    16     8   124    1
    17     9    52    2
    18    54    10    1
    19    62    10    1
    20    11    53    2
    21    56    12    1
    22    12   128    1
    23    13    59    1
    24    13   135    1
    25    14    59    2
    26    15    62    1
    27    15    66    1
    28    63    16    1
    29    16   139    1
    30    65    17    1
    31    17   142    1
    32    67    18    1
    33    18   143    1
    34    19    68    1
    35    19   144    1
    36    20    21    1
    37    20    23    1
    38    20    25    1
    39    20    35    1
    40    21    22    1
    41    21    32    1
    42    21    69    1
    43    22    24    1
    44    22    33    1
    45    22    38    1
    46    23    26    1
    47    23    31    1
    48    23    41    1
    49    24    29    1
    50    24    30    1
    51    24    70    1
    52    25    29    1
    53    25    71    1
    54    25    72    1
    55    26    27    1
    56    26    37    2
    57    27    28    1
    58    27    39    1
    59    27    73    1
    60    28    34    1
    61    28    42    1
    62    28    45    1
    63    29    74    1
    64    29    75    1
    65    30    36    1
    66    30    46    1
    67    30    47    1
    68    31    34    1
    69    31    76    1
    70    31    77    1
    71    32    37    1
    72    32    78    1
    73    32    79    1
    74    33    40    1
    75    33    80    1
    76    33    81    1
    77    34    82    1
    78    35    83    1
    79    35    84    1
    80    35    85    1
    81    36    40    1
    82    36    86    1
    83    37    87    1
    84    38    88    1
    85    38    89    1
    86    38    90    1
    87    39    43    1
    88    39    91    1
    89    39    92    1
    90    40    93    1
    91    40    94    1
    92    41    95    1
    93    41    96    1
    94    41    97    1
    95    42    44    1
    96    42    98    1
    97    43    44    1
    98    43    48    1
    99    43    49    1
   100    44    99    1
   101    45   100    1
   102    45   101    1
   103    46   102    1
   104    46   103    1
   105    47   104    1
   106    47   105    1
   107    47   106    1
   108    48   111    1
   109    48   112    1
   110    48   113    1
   111    49   108    1
   112    49   109    1
   113    49   110    1
   114    50    51    1
   115    50   115    1
   116    51    54    1
   117    51   117    1
   118    52    57    1
   119    53    58    1
   120    54    56    1
   121    54   118    1
   122    55    56    1
   123    55    59    1
   124    55   119    1
   125    56   120    1
   126    57    60    1
   127    57    61    2
   128    58   121    1
   129    58   122    1
   130    58   123    1
   131    60   125    1
   132    60   126    1
   133    60   127    1
   134    61    64    1
   135    61   129    1
   136    62    63    1
   137    62   130    1
   138    63    65    1
   139    63   131    1
   140    64   132    1
   141    64   133    1
   142    64   134    1
   143    65    67    1
   144    65   136    1
   145    66    67    1
   146    66    68    1
   147    66   137    1
   148    67   138    1
   149    68   140    1
   150    68   141    1
