@<TRIPOS>MOLECULE
IMPHY009206
 46 50 0 0 0
SMALL
GASTEIGER

@<TRIPOS>ATOM
      1 O           4.6559    2.6176    0.0000 O.3     1  UNL1       -0.3871
      2 O           2.0196    0.1207    0.0000 O.2     1  UNL1       -0.2868
      3 O           2.0038   -1.9276    0.0000 O.2     1  UNL1       -0.4919
      4 O           8.3075   -0.2207    0.0000 O.3     1  UNL1       -0.4526
      5 O           8.3075    1.4558    0.0000 O.3     1  UNL1       -0.4526
      6 N           3.8827    1.6125    0.0000 N.3     1  UNL1       -0.2922
      7 C           4.6559   -0.3825    0.0000 C.3     1  UNL1        0.0267
      8 C           3.7898    0.1175    0.0000 C.3     1  UNL1        0.1005
      9 C           5.9041    0.4454    0.0000 C.3     1  UNL1       -0.0281
     10 C           3.7898    1.1176    0.0000 C.3     1  UNL1        0.0041
     11 C           5.3628    1.8420    0.0000 C.3     1  UNL1        0.0004
     12 C           5.5219    0.1175    0.0000 C.ar    1  UNL1       -0.0294
     13 C           4.6719   -1.4240    0.0000 C.3     1  UNL1       -0.0191
     14 C           4.6559    1.6176    0.0000 C.3     1  UNL1        0.0827
     15 C           2.8798   -0.3893    0.0000 C.2     1  UNL1        0.2180
     16 C           5.5219    1.1176    0.0000 C.ar    1  UNL1       -0.0116
     17 C           3.7739   -1.9517    0.0000 C.2     1  UNL1       -0.0378
     18 C           2.8718   -1.4309    0.0000 C.2     1  UNL1        0.1603
     19 C           3.1439    2.2864    0.0000 C.3     1  UNL1       -0.0118
     20 C           6.4158   -0.4171    0.0000 C.ar    1  UNL1       -0.0120
     21 C           6.4158    1.6522    0.0000 C.ar    1  UNL1       -0.0102
     22 C           7.3219    0.0967    0.0000 C.ar    1  UNL1        0.1665
     23 C           7.3219    1.1384    0.0000 C.ar    1  UNL1        0.1666
     24 C           8.9154    0.6175    0.0000 C.3     1  UNL1        0.2332
     25 C           2.0000   -2.9276    0.0000 C.3     1  UNL1        0.0789
     26 H           6.2087   -0.0946    0.0000 H       1  UNL1        0.0287
     27 H           6.4646    0.7105    0.0000 H       1  UNL1        0.0287
     28 H           3.5778    1.7002    0.0000 H       1  UNL1        0.0316
     29 H           3.1792    1.0099    0.0000 H       1  UNL1        0.0316
     30 H           5.9555    2.0239    0.0000 H       1  UNL1        0.0427
     31 H           5.2240    2.4463    0.0000 H       1  UNL1        0.0427
     32 H           4.8900   -2.0044    0.0000 H       1  UNL1        0.0318
     33 H           5.2811   -1.3085    0.0000 H       1  UNL1        0.0318
     34 H           4.1189    1.9276    0.0000 H       1  UNL1        0.0644
     35 H           3.7763   -2.5717    0.0000 H       1  UNL1        0.0610
     36 H           3.5617    2.7444    0.0000 H       1  UNL1        0.0391
     37 H           2.6858    2.7042    0.0000 H       1  UNL1        0.0391
     38 H           2.7260    1.8283    0.0000 H       1  UNL1        0.0391
     39 H           6.4087   -1.0371    0.0000 H       1  UNL1        0.0658
     40 H           6.4087    2.2722    0.0000 H       1  UNL1        0.0659
     41 H           5.1928    2.9276    0.0000 H       1  UNL1        0.2102
     42 H           9.3763    0.2028    0.0000 H       1  UNL1        0.1166
     43 H           9.3763    1.0323    0.0000 H       1  UNL1        0.1166
     44 H           1.3800   -2.9252    0.0000 H       1  UNL1        0.0660
     45 H           1.9976   -3.5475    0.0000 H       1  UNL1        0.0660
     46 H           2.6200   -2.9299    0.0000 H       1  UNL1        0.0660
@<TRIPOS>BOND
     1    14     1    1
     2     1    41    1
     3     2    15    2
     4     3    18    1
     5     3    25    1
     6     4    22    1
     7     4    24    1
     8     5    23    1
     9     5    24    1
    10     8     6    1
    11     6    11    1
    12     6    19    1
    13     7     8    1
    14     7     9    1
    15     7    12    1
    16     7    13    1
    17     8    10    1
    18     8    15    1
    19     9    11    1
    20     9    26    1
    21     9    27    1
    22    10    14    1
    23    10    28    1
    24    10    29    1
    25    11    30    1
    26    11    31    1
    27    12    16   ar
    28    12    20   ar
    29    13    17    1
    30    13    32    1
    31    13    33    1
    32    14    16    1
    33    14    34    1
    34    15    18    1
    35    16    21   ar
    36    17    18    2
    37    17    35    1
    38    19    36    1
    39    19    37    1
    40    19    38    1
    41    20    22   ar
    42    20    39    1
    43    21    23   ar
    44    21    40    1
    45    22    23   ar
    46    24    42    1
    47    24    43    1
    48    25    44    1
    49    25    45    1
    50    25    46    1
