@<TRIPOS>MOLECULE
IMPHY004647
 192 193 0 0 0
SMALL
GASTEIGER

@<TRIPOS>ATOM
      1 O           3.8660  -10.2500    0.0000 O.3     1  UNL1       -0.4571
      2 O          11.6603   10.2500    0.0000 O.3     1  UNL1       -0.4610
      3 O           5.5981  -10.2500    0.0000 O.2     1  UNL1       -0.2508
      4 O          13.3923   10.2500    0.0000 O.2     1  UNL1       -0.2508
      5 C           3.0000   -7.7500    0.0000 C.3     1  UNL1       -0.0213
      6 C           3.8660   -7.2500    0.0000 C.3     1  UNL1        0.0036
      7 C           3.0000   -8.7500    0.0000 C.3     1  UNL1       -0.0060
      8 C           3.8660   -9.2500    0.0000 C.3     1  UNL1        0.1220
      9 C           4.7320   -7.7500    0.0000 C.2     1  UNL1       -0.0658
     10 C           2.0000   -7.7500    0.0000 C.3     1  UNL1       -0.0589
     11 C           2.5000   -6.8840    0.0000 C.3     1  UNL1       -0.0589
     12 C           4.7320   -8.7500    0.0000 C.2     1  UNL1       -0.0444
     13 C           3.8660   -6.2500    0.0000 C.2     1  UNL1       -0.0762
     14 C          12.5263    7.7500    0.0000 C.3     1  UNL1       -0.0066
     15 C          12.5263    8.7500    0.0000 C.3     1  UNL1       -0.0062
     16 C           5.5981   -7.2500    0.0000 C.3     1  UNL1       -0.0431
     17 C          11.6603    9.2500    0.0000 C.3     1  UNL1        0.1075
     18 C          11.6603    7.2500    0.0000 C.2     1  UNL1       -0.0425
     19 C          10.7942    8.7500    0.0000 C.3     1  UNL1        0.0059
     20 C          10.7942    7.7500    0.0000 C.2     1  UNL1       -0.0655
     21 C          13.5263    7.7500    0.0000 C.3     1  UNL1       -0.0557
     22 C          13.0263    6.8840    0.0000 C.3     1  UNL1       -0.0557
     23 C           4.7320   -5.7500    0.0000 C.2     1  UNL1       -0.0622
     24 C           4.7320  -10.7500    0.0000 C.2     1  UNL1        0.3076
     25 C          11.6603    6.2500    0.0000 C.2     1  UNL1       -0.0579
     26 C           9.9282    7.2500    0.0000 C.3     1  UNL1       -0.0431
     27 C           4.7320   -4.7500    0.0000 C.2     1  UNL1       -0.0507
     28 C           4.7320  -11.7500    0.0000 C.3     1  UNL1        0.0450
     29 C           5.5981  -12.2500    0.0000 C.3     1  UNL1       -0.0430
     30 C          12.5263   10.7500    0.0000 C.2     1  UNL1        0.3073
     31 C          10.7942    5.7500    0.0000 C.2     1  UNL1       -0.0586
     32 C           3.8660   -4.2500    0.0000 C.3     1  UNL1       -0.0397
     33 C           5.5981  -13.2500    0.0000 C.3     1  UNL1       -0.0526
     34 C          12.5263   11.7500    0.0000 C.3     1  UNL1        0.0449
     35 C           5.5981   -4.2500    0.0000 C.2     1  UNL1       -0.0588
     36 C          13.3923   12.2500    0.0000 C.3     1  UNL1       -0.0430
     37 C           6.4641  -13.7500    0.0000 C.3     1  UNL1       -0.0530
     38 C          10.7942    4.7500    0.0000 C.2     1  UNL1       -0.0504
     39 C          13.3923   13.2500    0.0000 C.3     1  UNL1       -0.0526
     40 C           6.4641  -14.7500    0.0000 C.3     1  UNL1       -0.0531
     41 C          14.2583   13.7500    0.0000 C.3     1  UNL1       -0.0530
     42 C           5.5981   -3.2500    0.0000 C.2     1  UNL1       -0.0613
     43 C           7.3301  -15.2500    0.0000 C.3     1  UNL1       -0.0531
     44 C          14.2583   14.7500    0.0000 C.3     1  UNL1       -0.0531
     45 C          11.6603    4.2500    0.0000 C.3     1  UNL1       -0.0397
     46 C           7.3301  -16.2500    0.0000 C.3     1  UNL1       -0.0531
     47 C           9.9282    4.2500    0.0000 C.2     1  UNL1       -0.0588
     48 C          15.1244   15.2500    0.0000 C.3     1  UNL1       -0.0531
     49 C           8.1962  -16.7500    0.0000 C.3     1  UNL1       -0.0531
     50 C          15.1244   16.2500    0.0000 C.3     1  UNL1       -0.0531
     51 C           6.4641   -2.7500    0.0000 C.2     1  UNL1       -0.0588
     52 C           8.1962  -17.7500    0.0000 C.3     1  UNL1       -0.0531
     53 C          15.9904   16.7500    0.0000 C.3     1  UNL1       -0.0531
     54 C          15.9904   17.7500    0.0000 C.3     1  UNL1       -0.0531
     55 C           9.0622  -18.2500    0.0000 C.3     1  UNL1       -0.0531
     56 C           9.9282    3.2500    0.0000 C.2     1  UNL1       -0.0613
     57 C          16.8564   18.2500    0.0000 C.3     1  UNL1       -0.0531
     58 C           9.0622  -19.2500    0.0000 C.3     1  UNL1       -0.0531
     59 C           6.4641   -1.7500    0.0000 C.2     1  UNL1       -0.0504
     60 C          16.8564   19.2500    0.0000 C.3     1  UNL1       -0.0531
     61 C           9.9282  -19.7500    0.0000 C.3     1  UNL1       -0.0531
     62 C          17.7224   19.7500    0.0000 C.3     1  UNL1       -0.0531
     63 C           9.0622    2.7500    0.0000 C.2     1  UNL1       -0.0588
     64 C           9.9282  -20.7500    0.0000 C.3     1  UNL1       -0.0533
     65 C           5.5981   -1.2500    0.0000 C.3     1  UNL1       -0.0397
     66 C          17.7224   20.7500    0.0000 C.3     1  UNL1       -0.0533
     67 C           7.3301   -1.2500    0.0000 C.2     1  UNL1       -0.0588
     68 C           9.0622    1.7500    0.0000 C.2     1  UNL1       -0.0504
     69 C          10.7942  -21.2500    0.0000 C.3     1  UNL1       -0.0559
     70 C          18.5885   21.2500    0.0000 C.3     1  UNL1       -0.0559
     71 C           7.3301   -0.2500    0.0000 C.2     1  UNL1       -0.0615
     72 C           8.1962    1.2500    0.0000 C.2     1  UNL1       -0.0588
     73 C           9.9282    1.2500    0.0000 C.3     1  UNL1       -0.0397
     74 C          10.7942  -22.2500    0.0000 C.3     1  UNL1       -0.0653
     75 C           8.1962    0.2500    0.0000 C.2     1  UNL1       -0.0615
     76 C          18.5885   22.2500    0.0000 C.3     1  UNL1       -0.0653
     77 H           4.4030   -6.9400    0.0000 H       1  UNL1        0.0393
     78 H           2.3894   -8.6423    0.0000 H       1  UNL1        0.0310
     79 H           2.7880   -9.3326    0.0000 H       1  UNL1        0.0310
     80 H           4.4030   -9.5600    0.0000 H       1  UNL1        0.0779
     81 H           2.0000   -7.1300    0.0000 H       1  UNL1        0.0235
     82 H           1.3800   -7.7500    0.0000 H       1  UNL1        0.0235
     83 H           2.0000   -8.3700    0.0000 H       1  UNL1        0.0235
     84 H           3.0369   -6.5740    0.0000 H       1  UNL1        0.0235
     85 H           2.1900   -6.3470    0.0000 H       1  UNL1        0.0235
     86 H           1.9631   -7.1940    0.0000 H       1  UNL1        0.0235
     87 H           5.2690   -9.0600    0.0000 H       1  UNL1        0.0608
     88 H           3.3291   -5.9400    0.0000 H       1  UNL1        0.0578
     89 H          13.1369    8.6423    0.0000 H       1  UNL1        0.0309
     90 H          12.7383    9.3326    0.0000 H       1  UNL1        0.0309
     91 H           5.9081   -7.7869    0.0000 H       1  UNL1        0.0275
     92 H           6.1350   -6.9400    0.0000 H       1  UNL1        0.0275
     93 H           5.2881   -6.7131    0.0000 H       1  UNL1        0.0275
     94 H          12.1972    9.5600    0.0000 H       1  UNL1        0.0737
     95 H          10.5822    9.3326    0.0000 H       1  UNL1        0.0346
     96 H          10.1836    8.6423    0.0000 H       1  UNL1        0.0346
     97 H          13.5263    7.1300    0.0000 H       1  UNL1        0.0238
     98 H          14.1463    7.7500    0.0000 H       1  UNL1        0.0238
     99 H          13.5263    8.3700    0.0000 H       1  UNL1        0.0238
    100 H          12.4893    6.5740    0.0000 H       1  UNL1        0.0238
    101 H          13.3363    6.3470    0.0000 H       1  UNL1        0.0238
    102 H          13.5632    7.1940    0.0000 H       1  UNL1        0.0238
    103 H           5.2690   -6.0600    0.0000 H       1  UNL1        0.0617
    104 H          12.1972    5.9400    0.0000 H       1  UNL1        0.0621
    105 H           9.6182    7.7869    0.0000 H       1  UNL1        0.0275
    106 H           9.3913    6.9400    0.0000 H       1  UNL1        0.0275
    107 H          10.2382    6.7131    0.0000 H       1  UNL1        0.0275
    108 H           4.1215  -11.6423    0.0000 H       1  UNL1        0.0377
    109 H           4.5200  -12.3326    0.0000 H       1  UNL1        0.0377
    110 H           6.2087  -12.3577    0.0000 H       1  UNL1        0.0270
    111 H           5.8101  -11.6674    0.0000 H       1  UNL1        0.0270
    112 H          10.2573    6.0600    0.0000 H       1  UNL1        0.0620
    113 H           4.1760   -3.7131    0.0000 H       1  UNL1        0.0278
    114 H           3.3291   -3.9400    0.0000 H       1  UNL1        0.0278
    115 H           3.5560   -4.7869    0.0000 H       1  UNL1        0.0278
    116 H          12.3142   12.3326    0.0000 H       1  UNL1        0.0377
    117 H          11.9157   11.6423    0.0000 H       1  UNL1        0.0377
    118 H           4.9875  -13.1423    0.0000 H       1  UNL1        0.0265
    119 H           5.3860  -13.8326    0.0000 H       1  UNL1        0.0265
    120 H           6.1350   -4.5600    0.0000 H       1  UNL1        0.0620
    121 H          13.6044   11.6674    0.0000 H       1  UNL1        0.0270
    122 H          14.0029   12.3577    0.0000 H       1  UNL1        0.0270
    123 H           7.0747  -13.8577    0.0000 H       1  UNL1        0.0265
    124 H           6.6762  -13.1674    0.0000 H       1  UNL1        0.0265
    125 H          13.1803   13.8326    0.0000 H       1  UNL1        0.0265
    126 H          12.7817   13.1423    0.0000 H       1  UNL1        0.0265
    127 H           5.8535  -14.6423    0.0000 H       1  UNL1        0.0265
    128 H           6.2520  -15.3326    0.0000 H       1  UNL1        0.0265
    129 H          14.4704   13.1674    0.0000 H       1  UNL1        0.0265
    130 H          14.8689   13.8577    0.0000 H       1  UNL1        0.0265
    131 H           5.0611   -2.9400    0.0000 H       1  UNL1        0.0618
    132 H           7.9407  -15.3577    0.0000 H       1  UNL1        0.0265
    133 H           7.5422  -14.6674    0.0000 H       1  UNL1        0.0265
    134 H          14.0463   15.3326    0.0000 H       1  UNL1        0.0265
    135 H          13.6477   14.6423    0.0000 H       1  UNL1        0.0265
    136 H          11.3503    3.7131    0.0000 H       1  UNL1        0.0278
    137 H          12.1972    3.9400    0.0000 H       1  UNL1        0.0278
    138 H          11.9703    4.7869    0.0000 H       1  UNL1        0.0278
    139 H           6.7196  -16.1423    0.0000 H       1  UNL1        0.0265
    140 H           7.1181  -16.8326    0.0000 H       1  UNL1        0.0265
    141 H           9.3913    4.5600    0.0000 H       1  UNL1        0.0620
    142 H          15.3364   14.6674    0.0000 H       1  UNL1        0.0265
    143 H          15.7349   15.3577    0.0000 H       1  UNL1        0.0265
    144 H           8.8067  -16.8577    0.0000 H       1  UNL1        0.0265
    145 H           8.4082  -16.1674    0.0000 H       1  UNL1        0.0265
    146 H          14.9123   16.8326    0.0000 H       1  UNL1        0.0265
    147 H          14.5138   16.1423    0.0000 H       1  UNL1        0.0265
    148 H           7.0010   -3.0600    0.0000 H       1  UNL1        0.0620
    149 H           7.5856  -17.6423    0.0000 H       1  UNL1        0.0265
    150 H           7.9841  -18.3326    0.0000 H       1  UNL1        0.0265
    151 H          16.2024   16.1674    0.0000 H       1  UNL1        0.0265
    152 H          16.6010   16.8577    0.0000 H       1  UNL1        0.0265
    153 H          15.7783   18.3326    0.0000 H       1  UNL1        0.0265
    154 H          15.3798   17.6423    0.0000 H       1  UNL1        0.0265
    155 H           9.6728  -18.3577    0.0000 H       1  UNL1        0.0265
    156 H           9.2742  -17.6674    0.0000 H       1  UNL1        0.0265
    157 H          10.4651    2.9400    0.0000 H       1  UNL1        0.0618
    158 H          17.0685   17.6674    0.0000 H       1  UNL1        0.0265
    159 H          17.4670   18.3577    0.0000 H       1  UNL1        0.0265
    160 H           8.4516  -19.1423    0.0000 H       1  UNL1        0.0265
    161 H           8.8501  -19.8326    0.0000 H       1  UNL1        0.0265
    162 H          16.6444   19.8326    0.0000 H       1  UNL1        0.0265
    163 H          16.2458   19.1423    0.0000 H       1  UNL1        0.0265
    164 H          10.5388  -19.8577    0.0000 H       1  UNL1        0.0265
    165 H          10.1403  -19.1674    0.0000 H       1  UNL1        0.0265
    166 H          17.9345   19.1674    0.0000 H       1  UNL1        0.0265
    167 H          18.3330   19.8577    0.0000 H       1  UNL1        0.0265
    168 H           8.5252    3.0600    0.0000 H       1  UNL1        0.0620
    169 H           9.3176  -20.6423    0.0000 H       1  UNL1        0.0265
    170 H           9.7162  -21.3326    0.0000 H       1  UNL1        0.0265
    171 H          17.5104   21.3326    0.0000 H       1  UNL1        0.0265
    172 H          17.1119   20.6423    0.0000 H       1  UNL1        0.0265
    173 H           5.9081   -0.7131    0.0000 H       1  UNL1        0.0278
    174 H           5.0611   -0.9400    0.0000 H       1  UNL1        0.0278
    175 H           5.2881   -1.7869    0.0000 H       1  UNL1        0.0278
    176 H           7.8671   -1.5600    0.0000 H       1  UNL1        0.0620
    177 H          11.4048  -21.3577    0.0000 H       1  UNL1        0.0263
    178 H          11.0063  -20.6674    0.0000 H       1  UNL1        0.0263
    179 H          18.8005   20.6674    0.0000 H       1  UNL1        0.0263
    180 H          19.1990   21.3577    0.0000 H       1  UNL1        0.0263
    181 H           6.7932    0.0600    0.0000 H       1  UNL1        0.0618
    182 H           7.6592    1.5600    0.0000 H       1  UNL1        0.0620
    183 H          10.1742  -22.2500    0.0000 H       1  UNL1        0.0230
    184 H          10.7942  -22.8700    0.0000 H       1  UNL1        0.0230
    185 H          11.4142  -22.2500    0.0000 H       1  UNL1        0.0230
    186 H           9.6182    0.7131    0.0000 H       1  UNL1        0.0278
    187 H          10.4651    0.9400    0.0000 H       1  UNL1        0.0278
    188 H          10.2382    1.7869    0.0000 H       1  UNL1        0.0278
    189 H           8.7331   -0.0600    0.0000 H       1  UNL1        0.0618
    190 H          19.2085   22.2500    0.0000 H       1  UNL1        0.0230
    191 H          18.5885   22.8700    0.0000 H       1  UNL1        0.0230
    192 H          17.9685   22.2500    0.0000 H       1  UNL1        0.0230
@<TRIPOS>BOND
     1     8     1    1
     2     1    24    1
     3    17     2    1
     4     2    30    1
     5     3    24    2
     6     4    30    2
     7     5     6    1
     8     5     7    1
     9     5    10    1
    10     5    11    1
    11     6     9    1
    12     6    13    1
    13     6    77    1
    14     7     8    1
    15     7    78    1
    16     7    79    1
    17     8    12    1
    18     8    80    1
    19     9    12    2
    20     9    16    1
    21    10    81    1
    22    10    82    1
    23    10    83    1
    24    11    84    1
    25    11    85    1
    26    11    86    1
    27    12    87    1
    28    13    23    2
    29    13    88    1
    30    14    15    1
    31    14    18    1
    32    14    21    1
    33    14    22    1
    34    15    17    1
    35    15    89    1
    36    15    90    1
    37    16    91    1
    38    16    92    1
    39    16    93    1
    40    17    19    1
    41    17    94    1
    42    18    20    2
    43    18    25    1
    44    19    20    1
    45    19    95    1
    46    19    96    1
    47    20    26    1
    48    21    97    1
    49    21    98    1
    50    21    99    1
    51    22   100    1
    52    22   101    1
    53    22   102    1
    54    23    27    1
    55    23   103    1
    56    24    28    1
    57    25    31    2
    58    25   104    1
    59    26   105    1
    60    26   106    1
    61    26   107    1
    62    27    32    1
    63    27    35    2
    64    28    29    1
    65    28   108    1
    66    28   109    1
    67    29    33    1
    68    29   110    1
    69    29   111    1
    70    30    34    1
    71    31    38    1
    72    31   112    1
    73    32   113    1
    74    32   114    1
    75    32   115    1
    76    33    37    1
    77    33   118    1
    78    33   119    1
    79    34    36    1
    80    34   116    1
    81    34   117    1
    82    35    42    1
    83    35   120    1
    84    36    39    1
    85    36   121    1
    86    36   122    1
    87    37    40    1
    88    37   123    1
    89    37   124    1
    90    38    45    1
    91    38    47    2
    92    39    41    1
    93    39   125    1
    94    39   126    1
    95    40    43    1
    96    40   127    1
    97    40   128    1
    98    41    44    1
    99    41   129    1
   100    41   130    1
   101    42    51    2
   102    42   131    1
   103    43    46    1
   104    43   132    1
   105    43   133    1
   106    44    48    1
   107    44   134    1
   108    44   135    1
   109    45   136    1
   110    45   137    1
   111    45   138    1
   112    46    49    1
   113    46   139    1
   114    46   140    1
   115    47    56    1
   116    47   141    1
   117    48    50    1
   118    48   142    1
   119    48   143    1
   120    49    52    1
   121    49   144    1
   122    49   145    1
   123    50    53    1
   124    50   146    1
   125    50   147    1
   126    51    59    1
   127    51   148    1
   128    52    55    1
   129    52   149    1
   130    52   150    1
   131    53    54    1
   132    53   151    1
   133    53   152    1
   134    54    57    1
   135    54   153    1
   136    54   154    1
   137    55    58    1
   138    55   155    1
   139    55   156    1
   140    56    63    2
   141    56   157    1
   142    57    60    1
   143    57   158    1
   144    57   159    1
   145    58    61    1
   146    58   160    1
   147    58   161    1
   148    59    65    1
   149    59    67    2
   150    60    62    1
   151    60   162    1
   152    60   163    1
   153    61    64    1
   154    61   164    1
   155    61   165    1
   156    62    66    1
   157    62   166    1
   158    62   167    1
   159    63    68    1
   160    63   168    1
   161    64    69    1
   162    64   169    1
   163    64   170    1
   164    65   173    1
   165    65   174    1
   166    65   175    1
   167    66    70    1
   168    66   171    1
   169    66   172    1
   170    67    71    1
   171    67   176    1
   172    68    72    2
   173    68    73    1
   174    69    74    1
   175    69   177    1
   176    69   178    1
   177    70    76    1
   178    70   179    1
   179    70   180    1
   180    71    75    2
   181    71   181    1
   182    72    75    1
   183    72   182    1
   184    73   186    1
   185    73   187    1
   186    73   188    1
   187    74   183    1
   188    74   184    1
   189    74   185    1
   190    75   189    1
   191    76   190    1
   192    76   191    1
   193    76   192    1
