@<TRIPOS>MOLECULE
IMPHY001259
 118 126 0 0 0
SMALL
GASTEIGER

@<TRIPOS>ATOM
      1 O           8.2902   -4.1927    0.0000 O.3     1  UNL1       -0.4570
      2 O           9.5577   -2.2380    0.0000 O.3     1  UNL1       -0.3733
      3 O          10.3009   -2.9071    0.0000 O.3     1  UNL1       -0.4658
      4 O          10.0930   -3.8852    0.0000 O.2     1  UNL1       -0.2474
      5 O           9.6602    2.2523    0.0000 O.3     1  UNL1       -0.4950
      6 O           7.9681    2.6052    0.0000 O.3     1  UNL1       -0.4670
      7 O           9.5774   -5.3516    0.0000 O.2     1  UNL1       -0.2512
      8 O           8.2092    0.8900    0.0000 O.2     1  UNL1       -0.2494
      9 O           2.4608   -0.4226    0.0000 O.3     1  UNL1       -0.3833
     10 O           2.7354    1.5002    0.0000 O.co2   1  UNL1       -0.7752
     11 N           5.8638   -1.9640    0.0000 N.3     1  UNL1       -0.2939
     12 N           8.9433   -0.9634    0.0000 N.pl3   1  UNL1       -0.3252
     13 N           3.7256    1.6394    0.0000 N.3     1  UNL1        0.2196
     14 N           7.3237    3.0284    0.0000 N.ar    1  UNL1       -0.3565
     15 C           7.4035   -1.4637    0.0000 C.3     1  UNL1        0.0372
     16 C           6.7781   -2.1583    0.0000 C.3     1  UNL1        0.0348
     17 C           8.3178   -1.6580    0.0000 C.3     1  UNL1        0.0772
     18 C           7.0669   -3.0473    0.0000 C.3     1  UNL1        0.0453
     19 C           8.6067   -2.5470    0.0000 C.3     1  UNL1        0.2195
     20 C           7.0184   -0.4281    0.0000 C.3     1  UNL1       -0.0271
     21 C           7.9812   -3.2416    0.0000 C.3     1  UNL1        0.1542
     22 C           7.7402    0.1199    0.0000 C.ar    1  UNL1       -0.0119
     23 C           5.5750   -1.0750    0.0000 C.3     1  UNL1        0.0005
     24 C           8.6544   -0.0744    0.0000 C.ar    1  UNL1        0.0375
     25 C           7.3760   -3.9983    0.0000 C.3     1  UNL1       -0.0418
     26 C           6.4415   -3.7419    0.0000 C.2     1  UNL1       -0.0755
     27 C           5.2384   -2.6586    0.0000 C.3     1  UNL1        0.0175
     28 C           7.4513    1.0089    0.0000 C.ar    1  UNL1       -0.0158
     29 C           5.5272   -3.5476    0.0000 C.2     1  UNL1       -0.0733
     30 C           9.3498   -3.2161    0.0000 C.2     1  UNL1        0.3446
     31 C           6.6032    1.5388    0.0000 C.3     1  UNL1        0.1333
     32 C           9.8943   -0.6544    0.0000 C.3     1  UNL1        0.0011
     33 C           9.2799    0.6202    0.0000 C.ar    1  UNL1        0.0014
     34 C           6.7068   -4.7415    0.0000 C.3     1  UNL1       -0.0643
     35 C           8.0768    1.7035    0.0000 C.ar    1  UNL1       -0.0150
     36 C           6.0733    0.6908    0.0000 C.3     1  UNL1       -0.0199
     37 C           8.9910    1.5092    0.0000 C.ar    1  UNL1        0.1222
     38 C           5.1223    0.3818    0.0000 C.3     1  UNL1        0.0036
     39 C           6.4641    2.5291    0.0000 C.ar    1  UNL1        0.0419
     40 C           8.5993   -5.1437    0.0000 C.2     1  UNL1        0.3043
     41 C           7.5935    1.6780    0.0000 C.2     1  UNL1        0.3234
     42 C           4.1951    0.7564    0.0000 C.3     1  UNL1       -0.0295
     43 C           4.4048   -0.3414    0.0000 C.3     1  UNL1       -0.0113
     44 C           5.7209    3.1982    0.0000 C.ar    1  UNL1       -0.0127
     45 C           3.4118   -0.1135    0.0000 C.3     1  UNL1        0.1056
     46 C           3.0814    0.8502    0.0000 C.3     1  UNL1       -0.0031
     47 C           3.9335    2.6174    0.0000 C.3     1  UNL1       -0.0284
     48 C           4.7215    3.2331    0.0000 C.3     1  UNL1        0.0149
     49 C          11.0440   -3.5762    0.0000 C.3     1  UNL1        0.0818
     50 C           7.9301   -5.8869    0.0000 C.3     1  UNL1        0.0332
     51 C           6.1276    4.1053    0.0000 C.ar    1  UNL1        0.0033
     52 C           7.1162    4.0005    0.0000 C.ar    1  UNL1        0.0470
     53 C           3.2039   -1.0917    0.0000 C.3     1  UNL1       -0.0218
     54 C          10.6383    2.0444    0.0000 C.3     1  UNL1        0.0788
     55 C           5.6927    5.0450    0.0000 C.ar    1  UNL1       -0.0523
     56 C           2.2528   -1.4007    0.0000 C.3     1  UNL1       -0.0625
     57 C           7.7384    4.8282    0.0000 C.ar    1  UNL1       -0.0378
     58 C           8.9584    2.7443    0.0000 C.3     1  UNL1        0.0817
     59 C           6.2956    5.8869    0.0000 C.ar    1  UNL1       -0.0611
     60 C           7.3253    5.7777    0.0000 C.ar    1  UNL1       -0.0598
     61 H           6.5154   -1.3499    0.0000 H       1  UNL1        0.0482
     62 H           9.1493   -1.8347    0.0000 H       1  UNL1        0.0544
     63 H           7.5947   -0.1994    0.0000 H       1  UNL1        0.0287
     64 H           6.7773    0.1431    0.0000 H       1  UNL1        0.0287
     65 H           8.5877   -3.3705    0.0000 H       1  UNL1        0.0779
     66 H           5.3418   -0.5005    0.0000 H       1  UNL1        0.0427
     67 H           4.9925   -1.2875    0.0000 H       1  UNL1        0.0427
     68 H           7.7577   -4.4869    0.0000 H       1  UNL1        0.0273
     69 H           7.9234   -3.7072    0.0000 H       1  UNL1        0.0273
     70 H           6.6331   -4.3316    0.0000 H       1  UNL1        0.0577
     71 H           4.8566   -2.1700    0.0000 H       1  UNL1        0.0470
     72 H           4.6909   -2.9497    0.0000 H       1  UNL1        0.0470
     73 H           5.1123   -4.0083    0.0000 H       1  UNL1        0.0582
     74 H          10.0859   -1.2440    0.0000 H       1  UNL1        0.0428
     75 H          10.4840   -0.4628    0.0000 H       1  UNL1        0.0428
     76 H           9.7027   -0.0647    0.0000 H       1  UNL1        0.0428
     77 H           9.9726   -1.7772    0.0000 H       1  UNL1        0.2111
     78 H           9.8863    0.4913    0.0000 H       1  UNL1        0.0673
     79 H           6.2461   -4.3266    0.0000 H       1  UNL1        0.0230
     80 H           6.2920   -5.2022    0.0000 H       1  UNL1        0.0230
     81 H           7.1676   -5.1563    0.0000 H       1  UNL1        0.0230
     82 H           7.8852    2.2932    0.0000 H       1  UNL1        0.0657
     83 H           6.0878    0.0710    0.0000 H       1  UNL1        0.0287
     84 H           6.6712    0.5268    0.0000 H       1  UNL1        0.0287
     85 H           5.5678   -0.3422    0.0000 H       1  UNL1        0.0354
     86 H           3.5872    0.6346    0.0000 H       1  UNL1        0.0816
     87 H           4.1374    0.1391    0.0000 H       1  UNL1        0.0816
     88 H           4.1571   -0.9098    0.0000 H       1  UNL1        0.0299
     89 H           4.9178   -0.6896    0.0000 H       1  UNL1        0.0299
     90 H           2.6816    1.3240    0.0000 H       1  UNL1        0.0842
     91 H           2.5420    0.5445    0.0000 H       1  UNL1        0.0842
     92 H           3.7080    3.1950    0.0000 H       1  UNL1        0.0817
     93 H           3.3156    2.5670    0.0000 H       1  UNL1        0.0817
     94 H           7.8246    3.3936    0.0000 H       1  UNL1        0.1656
     95 H           4.9200    3.8205    0.0000 H       1  UNL1        0.0366
     96 H           4.2157    3.5917    0.0000 H       1  UNL1        0.0366
     97 H          10.6292   -4.0370    0.0000 H       1  UNL1        0.0661
     98 H          11.5048   -3.9911    0.0000 H       1  UNL1        0.0661
     99 H          11.4589   -3.1155    0.0000 H       1  UNL1        0.0661
    100 H           7.4694   -5.4720    0.0000 H       1  UNL1        0.0342
    101 H           7.5153   -6.3476    0.0000 H       1  UNL1        0.0342
    102 H           8.3909   -6.3017    0.0000 H       1  UNL1        0.0342
    103 H           3.2902   -1.7057    0.0000 H       1  UNL1        0.0292
    104 H           3.8235   -1.1134    0.0000 H       1  UNL1        0.0292
    105 H           2.0000   -0.0077    0.0000 H       1  UNL1        0.2104
    106 H          10.5094    1.4380    0.0000 H       1  UNL1        0.0660
    107 H          11.2448    1.9155    0.0000 H       1  UNL1        0.0660
    108 H          10.7672    2.6509    0.0000 H       1  UNL1        0.0660
    109 H           5.0755    5.1032    0.0000 H       1  UNL1        0.0624
    110 H           2.0613   -0.8111    0.0000 H       1  UNL1        0.0231
    111 H           1.6632   -1.5923    0.0000 H       1  UNL1        0.0231
    112 H           2.4444   -1.9904    0.0000 H       1  UNL1        0.0231
    113 H           8.3541    4.7558    0.0000 H       1  UNL1        0.0638
    114 H           9.0447    2.1304    0.0000 H       1  UNL1        0.0661
    115 H           9.5724    2.8306    0.0000 H       1  UNL1        0.0661
    116 H           8.8721    3.3583    0.0000 H       1  UNL1        0.0661
    117 H           6.0417    6.4525    0.0000 H       1  UNL1        0.0618
    118 H           7.6921    6.2776    0.0000 H       1  UNL1        0.0618
@<TRIPOS>UNITY_ATOM_ATTR
10 1
charge -1
13 1
charge 1
@<TRIPOS>BOND
     1     1    21    1
     2     1    40    1
     3    19     2    1
     4     2    77    1
     5     3    30    1
     6     3    49    1
     7     4    30    2
     8     5    37    1
     9     5    54    1
    10     6    41    1
    11     6    58    1
    12     7    40    2
    13     8    41    2
    14    45     9    1
    15     9   105    1
    16    10    13    1
    17    11    16    1
    18    11    23    1
    19    11    27    1
    20    12    17    1
    21    12    24    1
    22    12    32    1
    23    13    42    1
    24    13    46    1
    25    13    47    1
    26    14    39   ar
    27    14    52   ar
    28    14    94    1
    29    15    16    1
    30    15    17    1
    31    15    20    1
    32    15    22    1
    33    16    18    1
    34    16    61    1
    35    17    19    1
    36    17    62    1
    37    18    21    1
    38    18    25    1
    39    18    26    1
    40    19    21    1
    41    19    30    1
    42    20    23    1
    43    20    63    1
    44    20    64    1
    45    21    65    1
    46    22    24   ar
    47    22    28   ar
    48    23    66    1
    49    23    67    1
    50    24    33   ar
    51    25    34    1
    52    25    68    1
    53    25    69    1
    54    26    29    2
    55    26    70    1
    56    27    29    1
    57    27    71    1
    58    27    72    1
    59    28    31    1
    60    28    35   ar
    61    29    73    1
    62    31    36    1
    63    31    39    1
    64    31    41    1
    65    32    74    1
    66    32    75    1
    67    32    76    1
    68    33    37   ar
    69    33    78    1
    70    34    79    1
    71    34    80    1
    72    34    81    1
    73    35    37   ar
    74    35    82    1
    75    36    38    1
    76    36    83    1
    77    36    84    1
    78    38    42    1
    79    38    43    1
    80    38    85    1
    81    39    44   ar
    82    40    50    1
    83    42    86    1
    84    42    87    1
    85    43    45    1
    86    43    88    1
    87    43    89    1
    88    44    48    1
    89    44    51   ar
    90    45    46    1
    91    45    53    1
    92    46    90    1
    93    46    91    1
    94    47    48    1
    95    47    92    1
    96    47    93    1
    97    48    95    1
    98    48    96    1
    99    49    97    1
   100    49    98    1
   101    49    99    1
   102    50   100    1
   103    50   101    1
   104    50   102    1
   105    51    52   ar
   106    51    55   ar
   107    52    57   ar
   108    53    56    1
   109    53   103    1
   110    53   104    1
   111    54   106    1
   112    54   107    1
   113    54   108    1
   114    55    59   ar
   115    55   109    1
   116    56   110    1
   117    56   111    1
   118    56   112    1
   119    57    60   ar
   120    57   113    1
   121    58   114    1
   122    58   115    1
   123    58   116    1
   124    59    60   ar
   125    59   117    1
   126    60   118    1
