@<TRIPOS>MOLECULE
IMPHY016598
 32 34 0 0 0
SMALL
GASTEIGER

@<TRIPOS>ATOM
      1 O           2.0000   -2.7503    0.0000 O.2     1  UNL1       -0.2971
      2 C           3.1550   -0.4404    0.0000 C.3     1  UNL1       -0.0119
      3 C           2.3285   -1.0042    0.0000 C.3     1  UNL1        0.0304
      4 C           2.2540   -0.0065    0.0000 C.3     1  UNL1       -0.0065
      5 C           3.9403   -1.0506    0.0000 C.3     1  UNL1       -0.0395
      6 C           4.0560   -0.0065    0.0000 C.3     1  UNL1       -0.0454
      7 C           2.6102   -1.9580    0.0000 C.2     1  UNL1        0.1376
      8 C           3.6043   -1.9866    0.0000 C.3     1  UNL1        0.0067
      9 C           2.0315    0.9684    0.0000 C.2     1  UNL1       -0.0831
     10 C           4.2785    0.9684    0.0000 C.3     1  UNL1       -0.0439
     11 C           3.6550    1.7503    0.0000 C.3     1  UNL1       -0.0169
     12 C           2.6550    1.7503    0.0000 C.2     1  UNL1       -0.0820
     13 C           3.6550    2.7503    0.0000 C.3     1  UNL1       -0.0563
     14 C           4.4368    2.3737    0.0000 C.3     1  UNL1       -0.0563
     15 H           1.7186   -1.1157    0.0000 H       1  UNL1        0.0389
     16 H           1.6410   -0.0988    0.0000 H       1  UNL1        0.0355
     17 H           4.4986   -1.3203    0.0000 H       1  UNL1        0.0275
     18 H           4.2672   -0.5237    0.0000 H       1  UNL1        0.0275
     19 H           4.1939   -0.6110    0.0000 H       1  UNL1        0.0271
     20 H           4.6760   -0.0065    0.0000 H       1  UNL1        0.0271
     21 H           3.5214   -2.6010    0.0000 H       1  UNL1        0.0342
     22 H           4.2066   -2.1336    0.0000 H       1  UNL1        0.0342
     23 H           1.4271    1.1064    0.0000 H       1  UNL1        0.0572
     24 H           4.8371    0.6994    0.0000 H       1  UNL1        0.0274
     25 H           4.6650    1.4532    0.0000 H       1  UNL1        0.0274
     26 H           2.3860    2.3089    0.0000 H       1  UNL1        0.0574
     27 H           4.2750    2.7503    0.0000 H       1  UNL1        0.0238
     28 H           3.6550    3.3703    0.0000 H       1  UNL1        0.0238
     29 H           3.0350    2.7503    0.0000 H       1  UNL1        0.0238
     30 H           4.8234    1.8890    0.0000 H       1  UNL1        0.0238
     31 H           4.9216    2.7603    0.0000 H       1  UNL1        0.0238
     32 H           4.0503    2.8585    0.0000 H       1  UNL1        0.0238
@<TRIPOS>BOND
     1     1     7    2
     2     2     3    1
     3     2     4    1
     4     2     5    1
     5     2     6    1
     6     3     4    1
     7     3     7    1
     8     3    15    1
     9     4     9    1
    10     4    16    1
    11     5     8    1
    12     5    17    1
    13     5    18    1
    14     6    10    1
    15     6    19    1
    16     6    20    1
    17     7     8    1
    18     8    21    1
    19     8    22    1
    20     9    12    2
    21     9    23    1
    22    10    11    1
    23    10    24    1
    24    10    25    1
    25    11    12    1
    26    11    13    1
    27    11    14    1
    28    12    26    1
    29    13    27    1
    30    13    28    1
    31    13    29    1
    32    14    30    1
    33    14    31    1
    34    14    32    1
