@<TRIPOS>MOLECULE
IMPHY013994
 88 92 0 0 0
SMALL
GASTEIGER

@<TRIPOS>ATOM
      1 O           7.9288   -2.7003    0.0000 O.3     1  UNL1       -0.3837
      2 O          10.4749    1.7117    0.0000 O.3     1  UNL1       -0.4576
      3 O           6.1847   -4.7695    0.0000 O.2     1  UNL1       -0.2924
      4 O           2.5357   -3.7526    0.0000 O.3     1  UNL1       -0.3918
      5 O          13.1462   -1.2655    0.0000 O.3     1  UNL1       -0.3891
      6 O          12.1212    1.1736    0.0000 O.2     1  UNL1       -0.2450
      7 C           7.9288   -0.7003    0.0000 C.3     1  UNL1        0.0038
      8 C           7.9288   -1.7003    0.0000 C.3     1  UNL1        0.0933
      9 C           8.8750   -0.3955    0.0000 C.3     1  UNL1       -0.0267
     10 C           6.1968   -1.7003    0.0000 C.3     1  UNL1       -0.0107
     11 C           5.2868   -2.2071    0.0000 C.3     1  UNL1       -0.0155
     12 C           7.0628   -0.2003    0.0000 C.3     1  UNL1       -0.0439
     13 C           7.0628   -2.2003    0.0000 C.2     1  UNL1       -0.0310
     14 C           8.8750   -2.0050    0.0000 C.3     1  UNL1       -0.0193
     15 C           6.1968   -0.7003    0.0000 C.3     1  UNL1       -0.0453
     16 C           9.4586   -1.2003    0.0000 C.3     1  UNL1       -0.0463
     17 C           5.2787   -3.2487    0.0000 C.3     1  UNL1        0.0298
     18 C           9.1857    0.5550    0.0000 C.3     1  UNL1       -0.0032
     19 C           7.9288    0.2997    0.0000 C.3     1  UNL1       -0.0564
     20 C           4.3599   -1.6430    0.0000 C.3     1  UNL1       -0.0441
     21 C           7.0789   -3.2418    0.0000 C.2     1  UNL1       -0.0167
     22 C           4.3433   -3.7984    0.0000 C.3     1  UNL1       -0.0165
     23 C           5.2945   -1.2071    0.0000 C.3     1  UNL1       -0.0584
     24 C           6.1808   -3.7695    0.0000 C.2     1  UNL1        0.1598
     25 C           3.4120   -2.1710    0.0000 C.3     1  UNL1       -0.0263
     26 C          10.1642    0.7612    0.0000 C.3     1  UNL1        0.1063
     27 C           3.4037   -3.2559    0.0000 C.3     1  UNL1        0.0559
     28 C           8.5179    1.2993    0.0000 C.3     1  UNL1       -0.0588
     29 C          10.8321    0.0169    0.0000 C.3     1  UNL1       -0.0128
     30 C          11.8106    0.2231    0.0000 C.3     1  UNL1       -0.0212
     31 C          12.4784   -0.5212    0.0000 C.3     1  UNL1        0.0607
     32 C          11.4534    1.9180    0.0000 C.2     1  UNL1        0.3395
     33 C          13.2227    0.1467    0.0000 C.3     1  UNL1       -0.0363
     34 C          11.7341   -1.1890    0.0000 C.3     1  UNL1       -0.0363
     35 C          11.7640    2.8685    0.0000 C.ar    1  UNL1        0.0590
     36 C          12.7425    3.0747    0.0000 C.ar    1  UNL1       -0.0478
     37 C          11.0962    3.6128    0.0000 C.ar    1  UNL1       -0.0478
     38 C          13.0532    4.0252    0.0000 C.ar    1  UNL1       -0.0610
     39 C          11.4069    4.5633    0.0000 C.ar    1  UNL1       -0.0610
     40 C          12.3854    4.7695    0.0000 C.ar    1  UNL1       -0.0617
     41 H           9.4875   -0.2993    0.0000 H       1  UNL1        0.0311
     42 H           6.7337   -1.3903    0.0000 H       1  UNL1        0.0352
     43 H           7.4613    0.2747    0.0000 H       1  UNL1        0.0272
     44 H           6.6643    0.2747    0.0000 H       1  UNL1        0.0272
     45 H           8.6240   -2.5719    0.0000 H       1  UNL1        0.0296
     46 H           9.4124   -2.3142    0.0000 H       1  UNL1        0.0296
     47 H           5.9847   -0.1176    0.0000 H       1  UNL1        0.0271
     48 H           5.5862   -0.8079    0.0000 H       1  UNL1        0.0271
     49 H           9.9195   -1.6150    0.0000 H       1  UNL1        0.0269
     50 H           9.9195   -0.7855    0.0000 H       1  UNL1        0.0269
     51 H           5.2811   -3.8687    0.0000 H       1  UNL1        0.0387
     52 H           9.5998    0.0935    0.0000 H       1  UNL1        0.0337
     53 H           8.5488    0.2997    0.0000 H       1  UNL1        0.0236
     54 H           7.9288    0.9197    0.0000 H       1  UNL1        0.0236
     55 H           7.3088    0.2997    0.0000 H       1  UNL1        0.0236
     56 H           4.7681   -1.1764    0.0000 H       1  UNL1        0.0272
     57 H           3.9700   -1.1610    0.0000 H       1  UNL1        0.0272
     58 H           7.6193   -3.5455    0.0000 H       1  UNL1        0.0653
     59 H           3.9460   -4.2744    0.0000 H       1  UNL1        0.0297
     60 H           4.7443   -4.2713    0.0000 H       1  UNL1        0.0297
     61 H           5.9145   -1.2119    0.0000 H       1  UNL1        0.0235
     62 H           5.2993   -0.5872    0.0000 H       1  UNL1        0.0235
     63 H           4.6745   -1.2024    0.0000 H       1  UNL1        0.0235
     64 H           8.4658   -3.0103    0.0000 H       1  UNL1        0.2106
     65 H           3.2075   -1.5857    0.0000 H       1  UNL1        0.0290
     66 H           2.8004   -2.2724    0.0000 H       1  UNL1        0.0290
     67 H           9.7502    1.2227    0.0000 H       1  UNL1        0.0737
     68 H           3.4025   -3.8759    0.0000 H       1  UNL1        0.0593
     69 H           8.9793    1.7134    0.0000 H       1  UNL1        0.0234
     70 H           8.1038    1.7608    0.0000 H       1  UNL1        0.0234
     71 H           8.0564    0.8852    0.0000 H       1  UNL1        0.0234
     72 H          10.3057   -0.3107    0.0000 H       1  UNL1        0.0302
     73 H          11.0633   -0.5583    0.0000 H       1  UNL1        0.0302
     74 H           2.0000   -3.4405    0.0000 H       1  UNL1        0.2098
     75 H          12.3369    0.5508    0.0000 H       1  UNL1        0.0294
     76 H          11.5793    0.7984    0.0000 H       1  UNL1        0.0294
     77 H          13.6368   -0.3148    0.0000 H       1  UNL1        0.0257
     78 H          13.6842    0.5607    0.0000 H       1  UNL1        0.0257
     79 H          12.8086    0.6081    0.0000 H       1  UNL1        0.0257
     80 H          11.3200   -0.7275    0.0000 H       1  UNL1        0.0257
     81 H          11.2726   -1.6031    0.0000 H       1  UNL1        0.0257
     82 H          12.1482   -1.6505    0.0000 H       1  UNL1        0.0257
     83 H          13.7529   -1.1376    0.0000 H       1  UNL1        0.2101
     84 H          13.1566    2.6132    0.0000 H       1  UNL1        0.0626
     85 H          10.4895    3.4849    0.0000 H       1  UNL1        0.0626
     86 H          13.6599    4.1531    0.0000 H       1  UNL1        0.0618
     87 H          10.9928    5.0248    0.0000 H       1  UNL1        0.0618
     88 H          12.5780    5.3588    0.0000 H       1  UNL1        0.0618
@<TRIPOS>BOND
     1     1     8    1
     2     1    64    1
     3     2    26    1
     4     2    32    1
     5     3    24    2
     6     4    27    1
     7     4    74    1
     8     5    31    1
     9     5    83    1
    10     6    32    2
    11     7     8    1
    12     7     9    1
    13     7    12    1
    14     7    19    1
    15     8    13    1
    16     8    14    1
    17     9    16    1
    18     9    18    1
    19     9    41    1
    20    10    11    1
    21    10    13    1
    22    10    15    1
    23    10    42    1
    24    11    17    1
    25    11    20    1
    26    11    23    1
    27    12    15    1
    28    12    43    1
    29    12    44    1
    30    13    21    2
    31    14    16    1
    32    14    45    1
    33    14    46    1
    34    15    47    1
    35    15    48    1
    36    16    49    1
    37    16    50    1
    38    17    22    1
    39    17    24    1
    40    17    51    1
    41    18    26    1
    42    18    28    1
    43    18    52    1
    44    19    53    1
    45    19    54    1
    46    19    55    1
    47    20    25    1
    48    20    56    1
    49    20    57    1
    50    21    24    1
    51    21    58    1
    52    22    27    1
    53    22    59    1
    54    22    60    1
    55    23    61    1
    56    23    62    1
    57    23    63    1
    58    25    27    1
    59    25    65    1
    60    25    66    1
    61    26    29    1
    62    26    67    1
    63    27    68    1
    64    28    69    1
    65    28    70    1
    66    28    71    1
    67    29    30    1
    68    29    72    1
    69    29    73    1
    70    30    31    1
    71    30    75    1
    72    30    76    1
    73    31    33    1
    74    31    34    1
    75    32    35    1
    76    33    77    1
    77    33    78    1
    78    33    79    1
    79    34    80    1
    80    34    81    1
    81    34    82    1
    82    35    36   ar
    83    35    37   ar
    84    36    38   ar
    85    36    84    1
    86    37    39   ar
    87    37    85    1
    88    38    40   ar
    89    38    86    1
    90    39    40   ar
    91    39    87    1
    92    40    88    1
