@<TRIPOS>MOLECULE
IMPHY008711
 43 43 0 0 0
SMALL
GASTEIGER

@<TRIPOS>ATOM
      1 O           3.9680   -0.6524    0.0000 O.3     1  UNL1       -0.3636
      2 O           6.0371    0.5774    0.0000 O.3     1  UNL1       -0.3863
      3 C           4.7770   -0.0646    0.0000 C.3     1  UNL1        0.0882
      4 C           5.7281   -0.3737    0.0000 C.3     1  UNL1        0.0896
      5 C           4.4680    0.8864    0.0000 C.3     1  UNL1       -0.0210
      6 C           3.1590   -0.0646    0.0000 C.3     1  UNL1        0.0851
      7 C           3.4680    0.8864    0.0000 C.3     1  UNL1       -0.0179
      8 C           6.6791   -0.6827    0.0000 C.3     1  UNL1       -0.0184
      9 C           5.4190   -1.3247    0.0000 C.3     1  UNL1       -0.0336
     10 C           2.5712   -0.8737    0.0000 C.3     1  UNL1       -0.0322
     11 C           2.2079    0.2444    0.0000 C.2     1  UNL1       -0.0600
     12 C           7.4223   -0.0135    0.0000 C.3     1  UNL1       -0.0319
     13 C           8.3733   -0.3226    0.0000 C.2     1  UNL1       -0.0852
     14 C           2.0000    1.2225    0.0000 C.2     1  UNL1       -0.1000
     15 C           9.1165    0.3466    0.0000 C.2     1  UNL1       -0.0796
     16 C          10.0675    0.0376    0.0000 C.3     1  UNL1       -0.0440
     17 C           8.9086    1.3247    0.0000 C.3     1  UNL1       -0.0440
     18 H           4.8740   -0.6770    0.0000 H       1  UNL1        0.0625
     19 H           5.0744    1.0153    0.0000 H       1  UNL1        0.0292
     20 H           4.4032    1.5030    0.0000 H       1  UNL1        0.0292
     21 H           3.5328    1.5030    0.0000 H       1  UNL1        0.0297
     22 H           2.8615    1.0153    0.0000 H       1  UNL1        0.0297
     23 H           6.3880   -1.2301    0.0000 H       1  UNL1        0.0297
     24 H           7.1677   -1.0644    0.0000 H       1  UNL1        0.0297
     25 H           4.8294   -1.1331    0.0000 H       1  UNL1        0.0258
     26 H           5.2274   -1.9144    0.0000 H       1  UNL1        0.0258
     27 H           6.0087   -1.5163    0.0000 H       1  UNL1        0.0258
     28 H           2.0696   -0.5092    0.0000 H       1  UNL1        0.0260
     29 H           2.2068   -1.3752    0.0000 H       1  UNL1        0.0260
     30 H           3.0728   -1.2381    0.0000 H       1  UNL1        0.0260
     31 H           1.7472   -0.1705    0.0000 H       1  UNL1        0.0594
     32 H           7.7133    0.5339    0.0000 H       1  UNL1        0.0308
     33 H           6.9337    0.3682    0.0000 H       1  UNL1        0.0308
     34 H           6.6435    0.7063    0.0000 H       1  UNL1        0.2103
     35 H           8.5022   -0.9290    0.0000 H       1  UNL1        0.0571
     36 H           2.4608    1.6374    0.0000 H       1  UNL1        0.0533
     37 H           1.4103    1.4141    0.0000 H       1  UNL1        0.0533
     38 H           9.8759   -0.5521    0.0000 H       1  UNL1        0.0274
     39 H          10.6572   -0.1540    0.0000 H       1  UNL1        0.0274
     40 H          10.2591    0.6272    0.0000 H       1  UNL1        0.0274
     41 H           9.5150    1.4536    0.0000 H       1  UNL1        0.0274
     42 H           8.7796    1.9312    0.0000 H       1  UNL1        0.0274
     43 H           8.3021    1.1958    0.0000 H       1  UNL1        0.0274
@<TRIPOS>BOND
     1     1     3    1
     2     1     6    1
     3     2     4    1
     4     2    34    1
     5     3     4    1
     6     3     5    1
     7     3    18    1
     8     4     8    1
     9     4     9    1
    10     5     7    1
    11     5    19    1
    12     5    20    1
    13     6     7    1
    14     6    10    1
    15     6    11    1
    16     7    21    1
    17     7    22    1
    18     8    12    1
    19     8    23    1
    20     8    24    1
    21     9    25    1
    22     9    26    1
    23     9    27    1
    24    10    28    1
    25    10    29    1
    26    10    30    1
    27    11    14    2
    28    11    31    1
    29    12    13    1
    30    12    32    1
    31    12    33    1
    32    13    15    2
    33    13    35    1
    34    14    36    1
    35    14    37    1
    36    15    16    1
    37    15    17    1
    38    16    38    1
    39    16    39    1
    40    16    40    1
    41    17    41    1
    42    17    42    1
    43    17    43    1
