@<TRIPOS>MOLECULE
IMPHY012016
 16 16 0 0 0
SMALL
GASTEIGER

@<TRIPOS>ATOM
      1 O           4.2690    2.0000    0.0000 O.3     1  UNL1       -0.5009
      2 O           2.5369    1.0000    0.0000 O.3     1  UNL1       -0.5031
      3 O           6.0010    1.0000    0.0000 O.3     1  UNL1       -0.5031
      4 O           4.2690   -2.0000    0.0000 O.3     1  UNL1       -0.5065
      5 C           4.2690    1.0000    0.0000 C.ar    1  UNL1        0.2008
      6 C           3.4030    0.5000    0.0000 C.ar    1  UNL1        0.1655
      7 C           5.1350    0.5000    0.0000 C.ar    1  UNL1        0.1655
      8 C           4.2690   -1.0000    0.0000 C.ar    1  UNL1        0.1240
      9 C           3.4030   -0.5000    0.0000 C.ar    1  UNL1        0.0252
     10 C           5.1350   -0.5000    0.0000 C.ar    1  UNL1        0.0252
     11 H           2.8660   -0.8100    0.0000 H       1  UNL1        0.0692
     12 H           5.6720   -0.8100    0.0000 H       1  UNL1        0.0692
     13 H           4.8059    2.3100    0.0000 H       1  UNL1        0.2924
     14 H           2.0000    0.6900    0.0000 H       1  UNL1        0.2923
     15 H           6.5380    0.6900    0.0000 H       1  UNL1        0.2923
     16 H           3.7320   -2.3100    0.0000 H       1  UNL1        0.2921
@<TRIPOS>BOND
     1     1     5    1
     2     1    13    1
     3     2     6    1
     4     2    14    1
     5     3     7    1
     6     3    15    1
     7     4     8    1
     8     4    16    1
     9     5     6   ar
    10     5     7   ar
    11     6     9   ar
    12     7    10   ar
    13     8     9   ar
    14     8    10   ar
    15     9    11    1
    16    10    12    1
