@<TRIPOS>MOLECULE
IMPHY004309
 193 204 0 0 0
SMALL
GASTEIGER

@<TRIPOS>ATOM
      1 O          21.2805    4.4453    0.0000 O.3     1  UNL1       -0.3448
      2 O          19.5081    5.3401    0.0000 O.3     1  UNL1       -0.3480
      3 O          18.1547    2.3914    0.0000 O.2     1  UNL1       -0.2968
      4 O          19.8574   -3.7988    0.0000 O.3     1  UNL1       -0.3454
      5 O          18.1254   -3.7988    0.0000 O.3     1  UNL1       -0.3405
      6 O          19.8574   -5.7988    0.0000 O.3     1  UNL1       -0.3841
      7 O          18.1254   -6.7988    0.0000 O.3     1  UNL1       -0.3864
      8 O          16.3933   -5.7988    0.0000 O.3     1  UNL1       -0.3401
      9 O          16.3933   -2.7988    0.0000 O.3     1  UNL1       -0.3924
     10 O          15.5273   -4.2988    0.0000 O.3     1  UNL1       -0.3405
     11 O          14.6613   -6.7988    0.0000 O.3     1  UNL1       -0.3841
     12 O          12.9292   -5.7988    0.0000 O.3     1  UNL1       -0.3864
     13 O          12.9292   -3.7988    0.0000 O.3     1  UNL1       -0.3401
     14 O          13.7953   -2.2988    0.0000 O.3     1  UNL1       -0.3924
     15 O          12.0632   -5.2988    0.0000 O.3     1  UNL1       -0.3405
     16 O          11.1972   -2.7988    0.0000 O.3     1  UNL1       -0.3378
     17 O           9.4651   -3.7988    0.0000 O.3     1  UNL1       -0.3400
     18 O           9.4651   -5.7988    0.0000 O.3     1  UNL1       -0.3865
     19 O           9.4651   -2.7988    0.0000 O.3     1  UNL1       -0.3461
     20 O           8.5991   -5.2988    0.0000 O.3     1  UNL1       -0.3431
     21 O          10.3312   -7.2988    0.0000 O.3     1  UNL1       -0.3924
     22 O          11.1972   -0.7987    0.0000 O.3     1  UNL1       -0.3841
     23 O           7.7331   -2.7988    0.0000 O.3     1  UNL1       -0.3841
     24 O           6.0010   -5.7988    0.0000 O.3     1  UNL1       -0.3402
     25 O           6.0010   -3.7988    0.0000 O.3     1  UNL1       -0.3864
     26 O           9.4651    0.2013    0.0000 O.3     1  UNL1       -0.3864
     27 O           7.7331   -0.7987    0.0000 O.3     1  UNL1       -0.3869
     28 O           5.1350   -4.2988    0.0000 O.3     1  UNL1       -0.3431
     29 O           4.2690   -6.7988    0.0000 O.3     1  UNL1       -0.3841
     30 O           2.5369   -5.7988    0.0000 O.3     1  UNL1       -0.3864
     31 O           2.5369   -3.7988    0.0000 O.3     1  UNL1       -0.3866
     32 C          20.7547    1.9015    0.0000 C.3     1  UNL1       -0.0231
     33 C          19.8867    2.3981    0.0000 C.3     1  UNL1        0.0349
     34 C          20.7585    0.9015    0.0000 C.3     1  UNL1       -0.0335
     35 C          20.0922    3.3707    0.0000 C.3     1  UNL1        0.0052
     36 C          19.8944    0.3981    0.0000 C.3     1  UNL1       -0.0256
     37 C          19.8824   -0.6434    0.0000 C.3     1  UNL1       -0.0256
     38 C          21.0805    3.4776    0.0000 C.3     1  UNL1        0.0664
     39 C          21.4891    2.5714    0.0000 C.3     1  UNL1       -0.0222
     40 C          19.6899    4.2733    0.0000 C.3     1  UNL1        0.0164
     41 C          20.7824   -1.1677    0.0000 C.3     1  UNL1       -0.0330
     42 C          19.0265    0.8948    0.0000 C.3     1  UNL1        0.0100
     43 C          21.6705    0.3981    0.0000 C.3     1  UNL1       -0.0494
     44 C          19.0226    1.8948    0.0000 C.2     1  UNL1        0.1401
     45 C          20.4228    4.9361    0.0000 C.3     1  UNL1        0.1732
     46 C          21.6825   -0.6434    0.0000 C.3     1  UNL1       -0.0494
     47 C          19.0188    2.8948    0.0000 C.3     1  UNL1       -0.0522
     48 C          18.9325   -1.1677    0.0000 C.3     1  UNL1       -0.0448
     49 C          20.7950   -2.2526    0.0000 C.3     1  UNL1       -0.0232
     50 C          19.0183   -0.1401    0.0000 C.3     1  UNL1       -0.0590
     51 C          18.9199   -2.2526    0.0000 C.3     1  UNL1       -0.0260
     52 C          19.8574   -2.7988    0.0000 C.3     1  UNL1        0.0621
     53 C          18.7115    4.4800    0.0000 C.3     1  UNL1       -0.0572
     54 C          21.2301    5.5263    0.0000 C.3     1  UNL1        0.0020
     55 C          21.1226    6.5205    0.0000 C.3     1  UNL1       -0.0435
     56 C          20.2078    6.9245    0.0000 C.3     1  UNL1       -0.0201
     57 C          19.4006    6.3343    0.0000 C.3     1  UNL1        0.0535
     58 C          20.1003    7.9188    0.0000 C.3     1  UNL1       -0.0603
     59 C          18.9914   -4.2988    0.0000 C.3     1  UNL1        0.1882
     60 C          18.9914   -5.2988    0.0000 C.3     1  UNL1        0.1341
     61 C          18.1254   -5.7988    0.0000 C.3     1  UNL1        0.1144
     62 C          17.2594   -4.2988    0.0000 C.3     1  UNL1        0.1134
     63 C          17.2594   -5.2988    0.0000 C.3     1  UNL1        0.1184
     64 C          16.3933   -3.7988    0.0000 C.3     1  UNL1        0.0730
     65 C          15.5273   -5.2988    0.0000 C.3     1  UNL1        0.1884
     66 C          14.6613   -5.7988    0.0000 C.3     1  UNL1        0.1341
     67 C          13.7953   -5.2988    0.0000 C.3     1  UNL1        0.1144
     68 C          14.6613   -3.7988    0.0000 C.3     1  UNL1        0.1134
     69 C          13.7953   -4.2988    0.0000 C.3     1  UNL1        0.1184
     70 C          14.6613   -2.7988    0.0000 C.3     1  UNL1        0.0730
     71 C          12.0632   -4.2988    0.0000 C.3     1  UNL1        0.1888
     72 C          11.1972   -3.7988    0.0000 C.3     1  UNL1        0.1410
     73 C          10.3312   -4.2988    0.0000 C.3     1  UNL1        0.1209
     74 C          11.1972   -5.7988    0.0000 C.3     1  UNL1        0.1130
     75 C          10.3312   -5.2988    0.0000 C.3     1  UNL1        0.1123
     76 C          11.1972   -6.7988    0.0000 C.3     1  UNL1        0.0730
     77 C          10.3312   -2.2988    0.0000 C.3     1  UNL1        0.1881
     78 C           8.5991   -4.2988    0.0000 C.3     1  UNL1        0.1883
     79 C          10.3312   -1.2988    0.0000 C.3     1  UNL1        0.1341
     80 C           7.7331   -3.7988    0.0000 C.3     1  UNL1        0.1341
     81 C           6.8671   -4.2988    0.0000 C.3     1  UNL1        0.1143
     82 C           9.4651   -0.7987    0.0000 C.3     1  UNL1        0.1137
     83 C           6.8671   -5.2988    0.0000 C.3     1  UNL1        0.1160
     84 C           7.7331   -5.7988    0.0000 C.3     1  UNL1        0.0877
     85 C           8.5991   -1.2988    0.0000 C.3     1  UNL1        0.1069
     86 C           8.5991   -2.2988    0.0000 C.3     1  UNL1        0.0792
     87 C           7.7331   -6.7988    0.0000 C.3     1  UNL1       -0.0361
     88 C           5.1350   -5.2988    0.0000 C.3     1  UNL1        0.1883
     89 C           4.2690   -5.7988    0.0000 C.3     1  UNL1        0.1341
     90 C           3.4030   -5.2988    0.0000 C.3     1  UNL1        0.1140
     91 C           3.4030   -4.2988    0.0000 C.3     1  UNL1        0.1095
     92 C           4.2690   -3.7988    0.0000 C.3     1  UNL1        0.0873
     93 C           4.2690   -2.7988    0.0000 C.3     1  UNL1       -0.0361
     94 H          21.5329    1.5598    0.0000 H       1  UNL1        0.0314
     95 H          21.4897    1.3350    0.0000 H       1  UNL1        0.0307
     96 H          19.2469    3.2812    0.0000 H       1  UNL1        0.0339
     97 H          20.6289   -0.0297    0.0000 H       1  UNL1        0.0313
     98 H          21.9254    3.5708    0.0000 H       1  UNL1        0.0600
     99 H          21.8565    2.0720    0.0000 H       1  UNL1        0.0293
    100 H          22.0244    2.8842    0.0000 H       1  UNL1        0.0293
    101 H          19.5284    4.8719    0.0000 H       1  UNL1        0.0354
    102 H          21.5218   -1.5870    0.0000 H       1  UNL1        0.0307
    103 H          18.4155    1.0001    0.0000 H       1  UNL1        0.0345
    104 H          18.8167    0.3114    0.0000 H       1  UNL1        0.0345
    105 H          22.2825    0.2991    0.0000 H       1  UNL1        0.0268
    106 H          21.8727    0.9842    0.0000 H       1  UNL1        0.0268
    107 H          21.8983   -1.2247    0.0000 H       1  UNL1        0.0268
    108 H          22.2921   -0.5303    0.0000 H       1  UNL1        0.0268
    109 H          19.3267    3.4329    0.0000 H       1  UNL1        0.0239
    110 H          18.4806    3.2027    0.0000 H       1  UNL1        0.0239
    111 H          18.7108    2.3567    0.0000 H       1  UNL1        0.0239
    112 H          18.7302   -0.5816    0.0000 H       1  UNL1        0.0271
    113 H          18.3204   -1.2667    0.0000 H       1  UNL1        0.0271
    114 H          21.0108   -2.8339    0.0000 H       1  UNL1        0.0293
    115 H          21.4046   -2.1395    0.0000 H       1  UNL1        0.0293
    116 H          19.3303    0.3957    0.0000 H       1  UNL1        0.0235
    117 H          18.4825    0.1720    0.0000 H       1  UNL1        0.0235
    118 H          18.7062   -0.6758    0.0000 H       1  UNL1        0.0235
    119 H          18.3103   -2.1395    0.0000 H       1  UNL1        0.0290
    120 H          18.7041   -2.8339    0.0000 H       1  UNL1        0.0290
    121 H          20.3950   -3.1077    0.0000 H       1  UNL1        0.0597
    122 H          18.8396    5.0866    0.0000 H       1  UNL1        0.0234
    123 H          18.1048    4.6082    0.0000 H       1  UNL1        0.0234
    124 H          18.5833    3.8734    0.0000 H       1  UNL1        0.0234
    125 H          21.5035    4.9699    0.0000 H       1  UNL1        0.0317
    126 H          21.8256    5.6990    0.0000 H       1  UNL1        0.0317
    127 H          21.7412    6.4791    0.0000 H       1  UNL1        0.0270
    128 H          21.2708    7.1226    0.0000 H       1  UNL1        0.0270
    129 H          20.7083    7.2905    0.0000 H       1  UNL1        0.0320
    130 H          19.1271    6.8908    0.0000 H       1  UNL1        0.0563
    131 H          18.8051    6.1617    0.0000 H       1  UNL1        0.0563
    132 H          20.7167    7.9854    0.0000 H       1  UNL1        0.0233
    133 H          20.0337    8.5352    0.0000 H       1  UNL1        0.0233
    134 H          19.4839    7.8521    0.0000 H       1  UNL1        0.0233
    135 H          18.9914   -3.6788    0.0000 H       1  UNL1        0.0937
    136 H          18.9914   -5.9188    0.0000 H       1  UNL1        0.0671
    137 H          17.5885   -6.1088    0.0000 H       1  UNL1        0.0648
    138 H          17.2594   -3.6788    0.0000 H       1  UNL1        0.0647
    139 H          16.7224   -4.9887    0.0000 H       1  UNL1        0.0651
    140 H          20.3944   -5.4887    0.0000 H       1  UNL1        0.2101
    141 H          15.7828   -3.6911    0.0000 H       1  UNL1        0.0584
    142 H          16.1813   -4.3814    0.0000 H       1  UNL1        0.0584
    143 H          18.6623   -7.1088    0.0000 H       1  UNL1        0.2100
    144 H          15.5273   -5.9188    0.0000 H       1  UNL1        0.0938
    145 H          15.8564   -2.4888    0.0000 H       1  UNL1        0.2095
    146 H          14.1244   -6.1088    0.0000 H       1  UNL1        0.0671
    147 H          13.2583   -4.9887    0.0000 H       1  UNL1        0.0648
    148 H          15.1982   -3.4888    0.0000 H       1  UNL1        0.0647
    149 H          13.7953   -3.6788    0.0000 H       1  UNL1        0.0651
    150 H          15.1982   -7.1088    0.0000 H       1  UNL1        0.2101
    151 H          15.2719   -2.9064    0.0000 H       1  UNL1        0.0584
    152 H          14.8733   -2.2161    0.0000 H       1  UNL1        0.0584
    153 H          12.9292   -6.4188    0.0000 H       1  UNL1        0.2100
    154 H          12.0632   -3.6788    0.0000 H       1  UNL1        0.0938
    155 H          13.7953   -1.6788    0.0000 H       1  UNL1        0.2095
    156 H          10.6603   -3.4888    0.0000 H       1  UNL1        0.0675
    157 H           9.7942   -4.6088    0.0000 H       1  UNL1        0.0651
    158 H          11.7341   -6.1088    0.0000 H       1  UNL1        0.0647
    159 H          10.8681   -4.9887    0.0000 H       1  UNL1        0.0647
    160 H          11.4092   -7.3814    0.0000 H       1  UNL1        0.0584
    161 H          11.8078   -6.6911    0.0000 H       1  UNL1        0.0584
    162 H          10.8681   -1.9888    0.0000 H       1  UNL1        0.0937
    163 H           8.5991   -3.6788    0.0000 H       1  UNL1        0.0938
    164 H           9.4651   -6.4188    0.0000 H       1  UNL1        0.2100
    165 H          10.3312   -0.6787    0.0000 H       1  UNL1        0.0671
    166 H           7.1962   -3.4888    0.0000 H       1  UNL1        0.0671
    167 H           6.3301   -4.6088    0.0000 H       1  UNL1        0.0648
    168 H           8.9282   -0.4887    0.0000 H       1  UNL1        0.0647
    169 H           7.4040   -4.9887    0.0000 H       1  UNL1        0.0650
    170 H           8.2700   -6.1088    0.0000 H       1  UNL1        0.0621
    171 H          10.3312   -7.9188    0.0000 H       1  UNL1        0.2095
    172 H           8.0622   -1.6087    0.0000 H       1  UNL1        0.0643
    173 H           7.9885   -2.1911    0.0000 H       1  UNL1        0.0587
    174 H           8.3871   -2.8814    0.0000 H       1  UNL1        0.0587
    175 H          11.1972   -0.1787    0.0000 H       1  UNL1        0.2101
    176 H           7.1131   -6.7988    0.0000 H       1  UNL1        0.0255
    177 H           7.7331   -7.4188    0.0000 H       1  UNL1        0.0255
    178 H           8.3531   -6.7988    0.0000 H       1  UNL1        0.0255
    179 H           7.1962   -2.4888    0.0000 H       1  UNL1        0.2101
    180 H           5.1350   -5.9188    0.0000 H       1  UNL1        0.0938
    181 H           6.0010   -3.1788    0.0000 H       1  UNL1        0.2100
    182 H           8.9282    0.5113    0.0000 H       1  UNL1        0.2100
    183 H           3.7320   -6.1088    0.0000 H       1  UNL1        0.0671
    184 H           2.8660   -4.9887    0.0000 H       1  UNL1        0.0648
    185 H           7.7331   -0.1787    0.0000 H       1  UNL1        0.2100
    186 H           3.4030   -3.6788    0.0000 H       1  UNL1        0.0646
    187 H           4.8059   -3.4888    0.0000 H       1  UNL1        0.0621
    188 H           4.8890   -2.7988    0.0000 H       1  UNL1        0.0255
    189 H           4.2690   -2.1788    0.0000 H       1  UNL1        0.0255
    190 H           3.6490   -2.7988    0.0000 H       1  UNL1        0.0255
    191 H           3.7320   -7.1088    0.0000 H       1  UNL1        0.2101
    192 H           2.0000   -5.4887    0.0000 H       1  UNL1        0.2100
    193 H           2.5369   -3.1788    0.0000 H       1  UNL1        0.2100
@<TRIPOS>BOND
     1     1    38    1
     2    45     1    1
     3     2    45    1
     4     2    57    1
     5     3    44    2
     6    52     4    1
     7     4    59    1
     8     5    59    1
     9     5    62    1
    10     6    60    1
    11     6   140    1
    12     7    61    1
    13     7   143    1
    14     8    63    1
    15     8    65    1
    16     9    64    1
    17     9   145    1
    18    10    65    1
    19    10    68    1
    20    11    66    1
    21    11   150    1
    22    12    67    1
    23    12   153    1
    24    13    69    1
    25    13    71    1
    26    14    70    1
    27    14   155    1
    28    15    71    1
    29    15    74    1
    30    16    72    1
    31    16    77    1
    32    17    73    1
    33    17    78    1
    34    18    75    1
    35    18   164    1
    36    19    77    1
    37    19    86    1
    38    20    78    1
    39    20    84    1
    40    21    76    1
    41    21   171    1
    42    22    79    1
    43    22   175    1
    44    23    80    1
    45    23   179    1
    46    24    83    1
    47    24    88    1
    48    25    81    1
    49    25   181    1
    50    26    82    1
    51    26   182    1
    52    27    85    1
    53    27   185    1
    54    28    88    1
    55    28    92    1
    56    29    89    1
    57    29   191    1
    58    30    90    1
    59    30   192    1
    60    31    91    1
    61    31   193    1
    62    32    33    1
    63    32    34    1
    64    32    39    1
    65    32    94    1
    66    33    35    1
    67    33    44    1
    68    33    47    1
    69    34    36    1
    70    34    43    1
    71    34    95    1
    72    35    38    1
    73    35    40    1
    74    35    96    1
    75    36    37    1
    76    36    42    1
    77    36    97    1
    78    37    41    1
    79    37    48    1
    80    37    50    1
    81    38    39    1
    82    38    98    1
    83    39    99    1
    84    39   100    1
    85    40    45    1
    86    40    53    1
    87    40   101    1
    88    41    46    1
    89    41    49    1
    90    41   102    1
    91    42    44    1
    92    42   103    1
    93    42   104    1
    94    43    46    1
    95    43   105    1
    96    43   106    1
    97    45    54    1
    98    46   107    1
    99    46   108    1
   100    47   109    1
   101    47   110    1
   102    47   111    1
   103    48    51    1
   104    48   112    1
   105    48   113    1
   106    49    52    1
   107    49   114    1
   108    49   115    1
   109    50   116    1
   110    50   117    1
   111    50   118    1
   112    51    52    1
   113    51   119    1
   114    51   120    1
   115    52   121    1
   116    53   122    1
   117    53   123    1
   118    53   124    1
   119    54    55    1
   120    54   125    1
   121    54   126    1
   122    55    56    1
   123    55   127    1
   124    55   128    1
   125    56    57    1
   126    56    58    1
   127    56   129    1
   128    57   130    1
   129    57   131    1
   130    58   132    1
   131    58   133    1
   132    58   134    1
   133    59    60    1
   134    59   135    1
   135    60    61    1
   136    60   136    1
   137    61    63    1
   138    61   137    1
   139    62    63    1
   140    62    64    1
   141    62   138    1
   142    63   139    1
   143    64   141    1
   144    64   142    1
   145    65    66    1
   146    65   144    1
   147    66    67    1
   148    66   146    1
   149    67    69    1
   150    67   147    1
   151    68    69    1
   152    68    70    1
   153    68   148    1
   154    69   149    1
   155    70   151    1
   156    70   152    1
   157    71    72    1
   158    71   154    1
   159    72    73    1
   160    72   156    1
   161    73    75    1
   162    73   157    1
   163    74    75    1
   164    74    76    1
   165    74   158    1
   166    75   159    1
   167    76   160    1
   168    76   161    1
   169    77    79    1
   170    77   162    1
   171    78    80    1
   172    78   163    1
   173    79    82    1
   174    79   165    1
   175    80    81    1
   176    80   166    1
   177    81    83    1
   178    81   167    1
   179    82    85    1
   180    82   168    1
   181    83    84    1
   182    83   169    1
   183    84    87    1
   184    84   170    1
   185    85    86    1
   186    85   172    1
   187    86   173    1
   188    86   174    1
   189    87   176    1
   190    87   177    1
   191    87   178    1
   192    88    89    1
   193    88   180    1
   194    89    90    1
   195    89   183    1
   196    90    91    1
   197    90   184    1
   198    91    92    1
   199    91   186    1
   200    92    93    1
   201    92   187    1
   202    93   188    1
   203    93   189    1
   204    93   190    1
