@<TRIPOS>MOLECULE
IMPHY009698
 27 28 0 0 0
SMALL
GASTEIGER

@<TRIPOS>ATOM
      1 O           3.0723    2.0713    0.0000 O.3     1  UNL1       -0.3909
      2 C           5.4490   -0.7344    0.0000 C.3     1  UNL1       -0.0206
      3 C           4.3089    0.2227    0.0000 C.3     1  UNL1       -0.0052
      4 C           4.0501   -0.7432    0.0000 C.3     1  UNL1        0.0116
      5 C           3.5723    1.2053    0.0000 C.3     1  UNL1        0.0658
      6 C           2.2756   -0.0884    0.0000 C.3     1  UNL1       -0.0288
      7 C           2.8290   -1.6089    0.0000 C.2     1  UNL1       -0.0705
      8 C           6.3150   -0.2344    0.0000 C.3     1  UNL1       -0.0588
      9 C           5.9490   -1.6004    0.0000 C.3     1  UNL1       -0.0588
     10 C           2.0000   -1.0497    0.0000 C.2     1  UNL1       -0.0843
     11 C           2.8639   -2.6083    0.0000 C.3     1  UNL1       -0.0434
     12 H           4.5289    1.0437    0.0000 H       1  UNL1        0.0334
     13 H           3.8301   -1.5643    0.0000 H       1  UNL1        0.0376
     14 H           4.0897    1.5469    0.0000 H       1  UNL1        0.0602
     15 H           2.2706    0.5315    0.0000 H       1  UNL1        0.0311
     16 H           1.6613   -0.0046    0.0000 H       1  UNL1        0.0311
     17 H           6.6250   -0.7713    0.0000 H       1  UNL1        0.0235
     18 H           6.8520    0.0756    0.0000 H       1  UNL1        0.0235
     19 H           6.0050    0.3025    0.0000 H       1  UNL1        0.0235
     20 H           5.4121   -1.9104    0.0000 H       1  UNL1        0.0235
     21 H           6.2590   -2.1374    0.0000 H       1  UNL1        0.0235
     22 H           6.4859   -1.2904    0.0000 H       1  UNL1        0.0235
     23 H           1.4174   -1.2618    0.0000 H       1  UNL1        0.0572
     24 H           3.3823    2.6083    0.0000 H       1  UNL1        0.2098
     25 H           2.2443   -2.6299    0.0000 H       1  UNL1        0.0274
     26 H           2.8856   -3.2279    0.0000 H       1  UNL1        0.0274
     27 H           3.4836   -2.5866    0.0000 H       1  UNL1        0.0274
@<TRIPOS>BOND
     1     5     1    1
     2     1    24    1
     3     2     3    1
     4     2     4    1
     5     2     8    1
     6     2     9    1
     7     3     5    1
     8     3     6    1
     9     3    12    1
    10     4     5    1
    11     4     7    1
    12     4    13    1
    13     5    14    1
    14     6    10    1
    15     6    15    1
    16     6    16    1
    17     7    10    2
    18     7    11    1
    19     8    17    1
    20     8    18    1
    21     8    19    1
    22     9    20    1
    23     9    21    1
    24     9    22    1
    25    10    23    1
    26    11    25    1
    27    11    26    1
    28    11    27    1
