@<TRIPOS>MOLECULE
IMPHY006907
 14 13 0 0 0
SMALL
GASTEIGER

@<TRIPOS>ATOM
      1 O           4.5981   -0.2500    0.0000 O.3     1  UNL1       -0.4804
      2 O           3.7320    1.2500    0.0000 O.2     1  UNL1       -0.2507
      3 C           2.8660   -0.2500    0.0000 C.3     1  UNL1        0.0507
      4 C           2.0000    0.2500    0.0000 C.3     1  UNL1       -0.0526
      5 C           2.8660   -1.2500    0.0000 C.3     1  UNL1       -0.0526
      6 C           3.7320    0.2500    0.0000 C.2     1  UNL1        0.3073
      7 H           2.8660    0.3700    0.0000 H       1  UNL1        0.0408
      8 H           2.3100    0.7869    0.0000 H       1  UNL1        0.0237
      9 H           1.4631    0.5600    0.0000 H       1  UNL1        0.0237
     10 H           1.6900   -0.2869    0.0000 H       1  UNL1        0.0237
     11 H           2.2460   -1.2500    0.0000 H       1  UNL1        0.0237
     12 H           2.8660   -1.8700    0.0000 H       1  UNL1        0.0237
     13 H           3.4860   -1.2500    0.0000 H       1  UNL1        0.0237
     14 H           5.1350    0.0600    0.0000 H       1  UNL1        0.2951
@<TRIPOS>BOND
     1     1     6    1
     2     1    14    1
     3     2     6    2
     4     3     4    1
     5     3     5    1
     6     3     6    1
     7     3     7    1
     8     4     8    1
     9     4     9    1
    10     4    10    1
    11     5    11    1
    12     5    12    1
    13     5    13    1
