@<TRIPOS>MOLECULE
IMPHY000669
 40 46 0 0 0
SMALL
GASTEIGER

@<TRIPOS>ATOM
      1 O        2679.2100 2418.1100    0.0000 O.3     1  UNL1       -0.2227
      2 C        2659.1600 2452.6600    0.0000 C.3     1  UNL1        0.1577
      3 C        2624.6200 2432.5100    0.0000 C.3     1  UNL1        0.1460
      4 C        2590.0700 2452.6600    0.0000 C.3     1  UNL1        0.0673
      5 C        2555.5300 2432.5100    0.0000 C.3     1  UNL1        0.0054
      6 C        2555.5300 2472.5100    0.0000 C.3     1  UNL1        0.0002
      7 C        2555.5300 2392.2100    0.0000 C.3     1  UNL1        0.0051
      8 C        2590.0700 2372.0600    0.0000 C.3     1  UNL1        0.0322
      9 C        2624.6200 2392.2100    0.0000 C.3     1  UNL1        0.1423
     10 O        2659.1600 2412.3600    0.0000 O.3     1  UNL1       -0.3536
     11 C        2520.8900 2372.0600    0.0000 C.3     1  UNL1        0.0297
     12 C        2486.3500 2392.2100    0.0000 C.3     1  UNL1        0.1178
     13 C        2486.3500 2432.5100    0.0000 C.3     1  UNL1        0.0296
     14 C        2520.8900 2452.6600    0.0000 C.3     1  UNL1        0.0027
     15 O        2451.7100 2372.1600    0.0000 O.3     1  UNL1       -0.3330
     16 C        2417.0700 2392.2100    0.0000 C.3     1  UNL1        0.2376
     17 C        2382.5300 2372.1600    0.0000 C.3     1  UNL1        0.0935
     18 C        2347.7900 2392.2100    0.0000 C.3     1  UNL1        0.1530
     19 O        2313.1500 2372.1600    0.0000 O.3     1  UNL1       -0.3507
     20 C        2271.7600 2396.0800    0.0000 C.3     1  UNL1        0.1741
     21 C        2347.7900 2432.2100    0.0000 C.3     1  UNL1        0.2059
     22 C        2382.5300 2452.1600    0.0000 C.3     1  UNL1        0.1505
     23 O        2417.0700 2432.2100    0.0000 O.3     1  UNL1       -0.3302
     24 C        2382.5300 2492.1600    0.0000 C.3     1  UNL1        0.0349
     25 O        2313.1500 2452.1600    0.0000 O.3     1  UNL1       -0.2179
     26 C        2590.0700 2493.0500    0.0000 C.3     1  UNL1        0.2110
     27 C        2624.6200 2513.2000    0.0000 C.2     1  UNL1        0.1827
     28 C        2659.1600 2493.0500    0.0000 C.3     1  UNL1        0.0855
     29 C        2659.1600 2533.0500    0.0000 C.3     1  UNL1        0.0103
     30 C        2693.7000 2513.2000    0.0000 C.3     1  UNL1        0.0311
     31 C        2728.2400 2493.0500    0.0000 C.3     1  UNL1        0.0073
     32 C        2728.2400 2452.6600    0.0000 C.3     1  UNL1        0.0336
     33 C        2693.7000 2553.2000    0.0000 C.2     1  UNL1        0.0057
     34 C        2726.8500 2577.6200    0.0000 C.3     1  UNL1        0.2314
     35 O        2715.2400 2615.0400    0.0000 O.3     1  UNL1       -0.4408
     36 C        2674.9400 2615.0400    0.0000 C.2     1  UNL1        0.3412
     37 C        2662.0300 2577.6200    0.0000 C.2     1  UNL1        0.0769
     38 O        2652.0100 2647.7900    0.0000 O.2     1  UNL1       -0.2449
     39 O        2624.6200 2553.2000    0.0000 O.2     1  UNL1       -0.2933
     40 O        2555.4300 2513.0000    0.0000 O.3     1  UNL1       -0.2151
@<TRIPOS>BOND
     1     2     1    1
     2     2     3    1
     3     2    28    1
     4     2    32    1
     5     3     9    1
     6     3    10    1
     7     4     3    1
     8     4     5    1
     9     4    26    1
    10     5     6    1
    11     5     7    1
    12     5    14    1
    13     7    11    1
    14     8     7    1
    15     9     8    1
    16     9    10    1
    17    11    12    1
    18    12    15    1
    19    13    12    1
    20    14    13    1
    21    16    15    1
    22    16    17    1
    23    16    23    1
    24    17    18    1
    25    18    19    1
    26    18    21    1
    27    19    20    1
    28    21    25    1
    29    22    21    1
    30    22    24    1
    31    23    22    1
    32    26    40    1
    33    27    26    1
    34    27    39    2
    35    28    27    1
    36    28    29    1
    37    28    30    1
    38    30    31    1
    39    30    33    1
    40    32    31    1
    41    33    34    1
    42    33    37    2
    43    34    35    1
    44    35    36    1
    45    36    38    2
    46    37    36    1
