@<TRIPOS>MOLECULE
IMPHY012580
 53 56 0 0 0
SMALL
GASTEIGER

@<TRIPOS>ATOM
      1 O           3.5026   -2.6882    0.0000 O.3     1  UNL1       -0.3851
      2 O           3.2847    0.3800    0.0000 O.3     1  UNL1       -0.3870
      3 O           2.5576   -2.2267    0.0000 O.3     1  UNL1       -0.3886
      4 O           4.3867    3.4680    0.0000 O.2     1  UNL1       -0.2921
      5 O           7.4798    2.0992    0.0000 O.3     1  UNL1       -0.3907
      6 C           5.1805   -1.5251    0.0000 C.3     1  UNL1        0.0076
      7 C           4.3244   -2.1185    0.0000 C.3     1  UNL1        0.1015
      8 C           5.2667   -2.5637    0.0000 C.3     1  UNL1        0.0028
      9 C           5.0867   -0.4877    0.0000 C.3     1  UNL1        0.0133
     10 C           3.3860   -1.6666    0.0000 C.3     1  UNL1        0.0899
     11 C           4.1857   -0.0539    0.0000 C.3     1  UNL1        0.0845
     12 C           3.3161   -0.6273    0.0000 C.3     1  UNL1        0.0149
     13 C           6.2633   -2.4812    0.0000 C.3     1  UNL1       -0.0567
     14 C           4.8398   -3.4680    0.0000 C.3     1  UNL1       -0.0567
     15 C           3.9632    0.9211    0.0000 C.3     1  UNL1        0.0176
     16 C           5.9876   -0.0539    0.0000 C.2     1  UNL1       -0.0764
     17 C           4.5867    1.7029    0.0000 C.3     1  UNL1        0.0344
     18 C           2.3181   -0.6905    0.0000 C.3     1  UNL1       -0.0573
     19 C           6.2102    0.9211    0.0000 C.2     1  UNL1       -0.0474
     20 C           5.5867    1.7029    0.0000 C.3     1  UNL1       -0.0191
     21 C           3.0334    1.2728    0.0000 C.2     1  UNL1       -0.0713
     22 C           4.0369    2.5311    0.0000 C.2     1  UNL1        0.1627
     23 C           3.0789    2.2658    0.0000 C.2     1  UNL1       -0.0113
     24 C           7.1851    1.1436    0.0000 C.3     1  UNL1        0.0653
     25 C           2.2970    2.8893    0.0000 C.3     1  UNL1       -0.0367
     26 H           6.0274   -1.4517    0.0000 H       1  UNL1        0.0342
     27 H           5.8261   -0.9071    0.0000 H       1  UNL1        0.0375
     28 H           2.8289   -1.3944    0.0000 H       1  UNL1        0.0626
     29 H           3.1193   -0.0394    0.0000 H       1  UNL1        0.0352
     30 H           6.3144   -3.0991    0.0000 H       1  UNL1        0.0236
     31 H           6.8812   -2.4301    0.0000 H       1  UNL1        0.0236
     32 H           6.2122   -1.8634    0.0000 H       1  UNL1        0.0236
     33 H           4.2791   -3.2033    0.0000 H       1  UNL1        0.0236
     34 H           4.5751   -4.0286    0.0000 H       1  UNL1        0.0236
     35 H           5.4004   -3.7326    0.0000 H       1  UNL1        0.0236
     36 H           4.7919    0.7319    0.0000 H       1  UNL1        0.0378
     37 H           6.4724   -0.4404    0.0000 H       1  UNL1        0.0576
     38 H           3.5537   -3.3061    0.0000 H       1  UNL1        0.2103
     39 H           4.9885    2.4519    0.0000 H       1  UNL1        0.0390
     40 H           2.2790   -0.0717    0.0000 H       1  UNL1        0.0234
     41 H           1.6994   -0.7297    0.0000 H       1  UNL1        0.0234
     42 H           2.3573   -1.3092    0.0000 H       1  UNL1        0.0234
     43 H           2.6665    0.3337    0.0000 H       1  UNL1        0.2102
     44 H           2.0000   -1.9556    0.0000 H       1  UNL1        0.2099
     45 H           6.1453    1.9719    0.0000 H       1  UNL1        0.0318
     46 H           5.4487    2.3074    0.0000 H       1  UNL1        0.0318
     47 H           2.5154    0.9321    0.0000 H       1  UNL1        0.0580
     48 H           7.2160    0.5244    0.0000 H       1  UNL1        0.0604
     49 H           7.8003    1.0665    0.0000 H       1  UNL1        0.0604
     50 H           2.6836    3.3740    0.0000 H       1  UNL1        0.0278
     51 H           1.8123    3.2759    0.0000 H       1  UNL1        0.0278
     52 H           1.9105    2.4046    0.0000 H       1  UNL1        0.0278
     53 H           8.0843    2.2371    0.0000 H       1  UNL1        0.2098
@<TRIPOS>BOND
     1     7     1    1
     2     1    38    1
     3    11     2    1
     4     2    43    1
     5    10     3    1
     6     3    44    1
     7     4    22    2
     8     5    24    1
     9     5    53    1
    10     6     7    1
    11     6     8    1
    12     6     9    1
    13     6    26    1
    14     7     8    1
    15     7    10    1
    16     8    13    1
    17     8    14    1
    18     9    11    1
    19     9    16    1
    20     9    27    1
    21    10    12    1
    22    10    28    1
    23    11    12    1
    24    11    15    1
    25    12    18    1
    26    12    29    1
    27    13    30    1
    28    13    31    1
    29    13    32    1
    30    14    33    1
    31    14    34    1
    32    14    35    1
    33    15    17    1
    34    15    21    1
    35    15    36    1
    36    16    19    2
    37    16    37    1
    38    17    20    1
    39    17    22    1
    40    17    39    1
    41    18    40    1
    42    18    41    1
    43    18    42    1
    44    19    20    1
    45    19    24    1
    46    20    45    1
    47    20    46    1
    48    21    23    2
    49    21    47    1
    50    22    23    1
    51    23    25    1
    52    24    48    1
    53    24    49    1
    54    25    50    1
    55    25    51    1
    56    25    52    1
