@<TRIPOS>MOLECULE
IMPHY005733
 68 72 0 0 0
SMALL
GASTEIGER

@<TRIPOS>ATOM
      1 O           9.1251   -2.1263    0.0000 O.3     1  UNL1       -0.3877
      2 O           6.4673   -3.6747    0.0000 O.3     1  UNL1       -0.3874
      3 O           4.9283   -0.2907    0.0000 O.3     1  UNL1       -0.3906
      4 O           3.7320   -3.1786    0.0000 O.3     1  UNL1       -0.4613
      5 O           6.8400    0.3039    0.0000 O.2     1  UNL1       -0.3002
      6 O          10.0248    2.8238    0.0000 O.2     1  UNL1       -0.4303
      7 O           2.8718   -1.6753    0.0000 O.2     1  UNL1       -0.2512
      8 O          11.3140    3.9805    0.0000 O.2     1  UNL1       -0.2452
      9 C           9.1251   -1.1263    0.0000 C.3     1  UNL1        0.0751
     10 C           8.2591   -1.6263    0.0000 C.3     1  UNL1       -0.0076
     11 C           7.3931   -1.1263    0.0000 C.3     1  UNL1       -0.0184
     12 C           9.1251   -0.1263    0.0000 C.3     1  UNL1        0.0039
     13 C           6.4831   -1.6331    0.0000 C.3     1  UNL1        0.0837
     14 C           6.4750   -2.6747    0.0000 C.3     1  UNL1        0.0841
     15 C           7.3931   -0.1263    0.0000 C.3     1  UNL1       -0.0482
     16 C           8.2591    0.3737    0.0000 C.3     1  UNL1       -0.0442
     17 C          10.0713    0.1785    0.0000 C.3     1  UNL1       -0.0049
     18 C           8.2752   -2.6678    0.0000 C.3     1  UNL1       -0.0447
     19 C          10.0713   -1.4310    0.0000 C.3     1  UNL1       -0.0226
     20 C           7.3771   -3.1955    0.0000 C.3     1  UNL1       -0.0225
     21 C          10.6550   -0.6263    0.0000 C.3     1  UNL1       -0.0429
     22 C           5.5562   -1.0690    0.0000 C.3     1  UNL1        0.0735
     23 C           5.5396   -3.2244    0.0000 C.3     1  UNL1        0.0144
     24 C           9.1251    0.8737    0.0000 C.3     1  UNL1       -0.0564
     25 C           4.6084   -1.5970    0.0000 C.3     1  UNL1        0.0115
     26 C           4.6000   -2.6820    0.0000 C.3     1  UNL1        0.1081
     27 C           6.4908   -0.6331    0.0000 C.2     1  UNL1        0.1319
     28 C          10.3820    1.1290    0.0000 C.ar    1  UNL1       -0.0085
     29 C          11.3605    1.3352    0.0000 C.ar    1  UNL1       -0.0486
     30 C           9.7142    1.8733    0.0000 C.ar    1  UNL1        0.0994
     31 C          11.6712    2.2857    0.0000 C.ar    1  UNL1        0.0233
     32 C           2.8680   -2.6753    0.0000 C.2     1  UNL1        0.3042
     33 C          11.0033    3.0300    0.0000 C.ar    1  UNL1        0.3367
     34 C           2.0000   -3.1719    0.0000 C.3     1  UNL1        0.0332
     35 H           8.9985   -2.0456    0.0000 H       1  UNL1        0.0332
     36 H           8.1292   -0.7013    0.0000 H       1  UNL1        0.0315
     37 H           7.1810    0.4563    0.0000 H       1  UNL1        0.0269
     38 H           6.7825   -0.2339    0.0000 H       1  UNL1        0.0269
     39 H           8.6576    0.8487    0.0000 H       1  UNL1        0.0272
     40 H           7.8606    0.8487    0.0000 H       1  UNL1        0.0272
     41 H          10.6838    0.2747    0.0000 H       1  UNL1        0.0356
     42 H           8.4932   -3.2482    0.0000 H       1  UNL1        0.0270
     43 H           8.8843   -2.5523    0.0000 H       1  UNL1        0.0270
     44 H           9.8203   -1.9979    0.0000 H       1  UNL1        0.0293
     45 H          10.6087   -1.7402    0.0000 H       1  UNL1        0.0293
     46 H           6.9798   -3.6715    0.0000 H       1  UNL1        0.0293
     47 H           7.7781   -3.6684    0.0000 H       1  UNL1        0.0293
     48 H          11.1158   -1.0410    0.0000 H       1  UNL1        0.0272
     49 H          11.1158   -0.2115    0.0000 H       1  UNL1        0.0272
     50 H           5.9647   -0.6026    0.0000 H       1  UNL1        0.0605
     51 H           5.1423   -3.7004    0.0000 H       1  UNL1        0.0329
     52 H           5.9406   -3.6973    0.0000 H       1  UNL1        0.0329
     53 H           9.7451    0.8737    0.0000 H       1  UNL1        0.0236
     54 H           9.1251    1.4937    0.0000 H       1  UNL1        0.0236
     55 H           8.5051    0.8737    0.0000 H       1  UNL1        0.0236
     56 H           4.4038   -1.0117    0.0000 H       1  UNL1        0.0326
     57 H           3.9967   -1.6984    0.0000 H       1  UNL1        0.0326
     58 H           4.0648   -2.3688    0.0000 H       1  UNL1        0.0735
     59 H           5.9562   -0.3190    0.0000 H       1  UNL1        0.1034
     60 H           9.6621   -2.4363    0.0000 H       1  UNL1        0.2102
     61 H           5.9280   -3.9805    0.0000 H       1  UNL1        0.2102
     62 H           4.3158   -0.3866    0.0000 H       1  UNL1        0.2098
     63 H          11.7746    0.8737    0.0000 H       1  UNL1        0.0623
     64 H           9.1075    1.7454    0.0000 H       1  UNL1        0.1033
     65 H          12.2778    2.4136    0.0000 H       1  UNL1        0.0689
     66 H           1.6921   -2.6338    0.0000 H       1  UNL1        0.0342
     67 H           1.4619   -3.4799    0.0000 H       1  UNL1        0.0342
     68 H           2.3079   -3.7100    0.0000 H       1  UNL1        0.0342
@<TRIPOS>BOND
     1     9     1    1
     2     1    60    1
     3    14     2    1
     4     2    61    1
     5    22     3    1
     6     3    62    1
     7    26     4    1
     8     4    32    1
     9     5    27    2
    10     6    30   ar
    11     6    33   ar
    12     7    32    2
    13     8    33    2
    14     9    10    1
    15     9    12    1
    16     9    19    1
    17    10    11    1
    18    10    18    1
    19    10    35    1
    20    11    13    1
    21    11    15    1
    22    11    36    1
    23    12    16    1
    24    12    17    1
    25    12    24    1
    26    13    14    1
    27    13    22    1
    28    13    27    1
    29    14    20    1
    30    14    23    1
    31    15    16    1
    32    15    37    1
    33    15    38    1
    34    16    39    1
    35    16    40    1
    36    17    21    1
    37    17    28    1
    38    17    41    1
    39    18    20    1
    40    18    42    1
    41    18    43    1
    42    19    21    1
    43    19    44    1
    44    19    45    1
    45    20    46    1
    46    20    47    1
    47    21    48    1
    48    21    49    1
    49    22    25    1
    50    22    50    1
    51    23    26    1
    52    23    51    1
    53    23    52    1
    54    24    53    1
    55    24    54    1
    56    24    55    1
    57    25    26    1
    58    25    56    1
    59    25    57    1
    60    26    58    1
    61    27    59    1
    62    28    29   ar
    63    28    30   ar
    64    29    31   ar
    65    29    63    1
    66    30    64    1
    67    31    33   ar
    68    31    65    1
    69    32    34    1
    70    34    66    1
    71    34    67    1
    72    34    68    1
