@<TRIPOS>MOLECULE
IMPHY001544
 46 48 0 0 0
SMALL
GASTEIGER

@<TRIPOS>ATOM
      1 O           3.7230   -1.8420    0.0000 O.3     1  UNL1       -0.4567
      2 O           4.5447    1.3234    0.0000 O.3     1  UNL1       -0.4570
      3 O           7.0268   -3.8305    0.0000 O.3     1  UNL1       -0.3875
      4 O           2.0000   -1.4098    0.0000 O.2     1  UNL1       -0.2453
      5 O           6.1053    2.0749    0.0000 O.2     1  UNL1       -0.2453
      6 C           5.4786   -1.7682    0.0000 C.3     1  UNL1        0.0266
      7 C           6.3796   -1.3343    0.0000 C.3     1  UNL1       -0.0074
      8 C           4.5777   -1.3343    0.0000 C.3     1  UNL1        0.1208
      9 C           4.3551   -0.3594    0.0000 C.3     1  UNL1        0.0653
     10 C           7.0647   -2.0546    0.0000 C.3     1  UNL1       -0.0158
     11 C           5.6146   -2.7529    0.0000 C.2     1  UNL1       -0.0414
     12 C           4.9786    0.4225    0.0000 C.3     1  UNL1        0.1174
     13 C           6.5929   -2.9296    0.0000 C.3     1  UNL1        0.0770
     14 C           6.6021   -0.3594    0.0000 C.2     1  UNL1       -0.0693
     15 C           5.9786    0.4225    0.0000 C.3     1  UNL1        0.0063
     16 C           3.3648   -0.2728    0.0000 C.2     1  UNL1        0.0396
     17 C           2.9749   -1.1873    0.0000 C.2     1  UNL1        0.3354
     18 C           4.8930   -3.4452    0.0000 C.2     1  UNL1       -0.0966
     19 C           7.5770   -0.1369    0.0000 C.2     1  UNL1       -0.0990
     20 C           2.8504    0.5847    0.0000 C.2     1  UNL1       -0.0882
     21 C           5.1081    2.1497    0.0000 C.2     1  UNL1        0.3346
     22 C           4.6742    3.0506    0.0000 C.2     1  UNL1        0.0265
     23 C           5.2375    3.8769    0.0000 C.3     1  UNL1       -0.0335
     24 C           3.6770    3.1254    0.0000 C.2     1  UNL1       -0.0890
     25 H           4.7916   -2.2687    0.0000 H       1  UNL1        0.0388
     26 H           7.1993   -1.1092    0.0000 H       1  UNL1        0.0353
     27 H           4.6147   -2.1835    0.0000 H       1  UNL1        0.0747
     28 H           4.0200    0.4218    0.0000 H       1  UNL1        0.0423
     29 H           7.5765   -2.4046    0.0000 H       1  UNL1        0.0299
     30 H           7.4666   -1.5824    0.0000 H       1  UNL1        0.0299
     31 H           5.3085    0.9474    0.0000 H       1  UNL1        0.0744
     32 H           7.2127   -2.9438    0.0000 H       1  UNL1        0.0640
     33 H           6.5372    0.6915    0.0000 H       1  UNL1        0.0346
     34 H           5.8407    1.0269    0.0000 H       1  UNL1        0.0346
     35 H           4.2976   -3.2724    0.0000 H       1  UNL1        0.0535
     36 H           5.0411   -4.0473    0.0000 H       1  UNL1        0.0535
     37 H           7.9988   -0.5913    0.0000 H       1  UNL1        0.0535
     38 H           7.7598    0.4556    0.0000 H       1  UNL1        0.0535
     39 H           7.6450   -3.8769    0.0000 H       1  UNL1        0.2102
     40 H           3.1514    1.1268    0.0000 H       1  UNL1        0.0540
     41 H           2.2305    0.5744    0.0000 H       1  UNL1        0.0540
     42 H           5.7498    3.5276    0.0000 H       1  UNL1        0.0280
     43 H           5.5868    4.3891    0.0000 H       1  UNL1        0.0280
     44 H           4.7252    4.2261    0.0000 H       1  UNL1        0.0280
     45 H           3.4080    3.6840    0.0000 H       1  UNL1        0.0540
     46 H           3.3277    2.6131    0.0000 H       1  UNL1        0.0540
@<TRIPOS>BOND
     1     1     8    1
     2     1    17    1
     3    12     2    1
     4     2    21    1
     5    13     3    1
     6     3    39    1
     7     4    17    2
     8     5    21    2
     9     6     7    1
    10     6     8    1
    11     6    11    1
    12     6    25    1
    13     7    10    1
    14     7    14    1
    15     7    26    1
    16     8     9    1
    17     8    27    1
    18     9    12    1
    19     9    16    1
    20     9    28    1
    21    10    13    1
    22    10    29    1
    23    10    30    1
    24    11    13    1
    25    11    18    2
    26    12    15    1
    27    12    31    1
    28    13    32    1
    29    14    15    1
    30    14    19    2
    31    15    33    1
    32    15    34    1
    33    16    17    1
    34    16    20    2
    35    18    35    1
    36    18    36    1
    37    19    37    1
    38    19    38    1
    39    20    40    1
    40    20    41    1
    41    21    22    1
    42    22    23    1
    43    22    24    2
    44    23    42    1
    45    23    43    1
    46    23    44    1
    47    24    45    1
    48    24    46    1
