@<TRIPOS>MOLECULE
IMPHY005661
 47 49 0 0 0
SMALL
GASTEIGER

@<TRIPOS>ATOM
      1 O           5.5220    0.1953    0.0000 O.3     1  UNL1       -0.4548
      2 O           4.1973    3.4114    0.0000 O.co2   1  UNL1       -0.7743
      3 O           2.9239   -0.3047    0.0000 O.3     1  UNL1       -0.4579
      4 O           4.8668   -2.9836    0.0000 O.3     1  UNL1       -0.3846
      5 O           3.0035   -2.7904    0.0000 O.3     1  UNL1       -0.3754
      6 O           6.9662   -0.8922    0.0000 O.2     1  UNL1       -0.2504
      7 O           2.0000   -1.6874    0.0000 O.2     1  UNL1       -0.2475
      8 N           4.8651    2.6671    0.0000 N.3     1  UNL1        0.2280
      9 C           4.6559    1.6953    0.0000 C.3     1  UNL1        0.0418
     10 C           5.5220    1.1953    0.0000 C.3     1  UNL1        0.1540
     11 C           5.8539    2.7702    0.0000 C.3     1  UNL1       -0.0280
     12 C           6.2590    1.8624    0.0000 C.3     1  UNL1        0.0303
     13 C           5.3695    1.7942    0.0000 C.3     1  UNL1       -0.0125
     14 C           3.7899    1.1953    0.0000 C.2     1  UNL1        0.0194
     15 C           4.7748    0.9802    0.0000 C.2     1  UNL1       -0.0317
     16 C           3.7899    0.1953    0.0000 C.3     1  UNL1        0.1191
     17 C           4.6310   -2.0118    0.0000 C.3     1  UNL1        0.1145
     18 C           5.1310   -1.1458    0.0000 C.3     1  UNL1        0.0852
     19 C           3.6310   -2.0118    0.0000 C.3     1  UNL1        0.1885
     20 C           5.9970   -0.6458    0.0000 C.2     1  UNL1        0.3133
     21 C           2.9239   -1.3047    0.0000 C.2     1  UNL1        0.3421
     22 C           5.6028   -2.2475    0.0000 C.3     1  UNL1       -0.0320
     23 C           4.4239   -0.4386    0.0000 C.3     1  UNL1       -0.0495
     24 C           3.6985   -3.0095    0.0000 C.3     1  UNL1       -0.0227
     25 H           3.9689    2.1958    0.0000 H       1  UNL1        0.0938
     26 H           6.2989    0.8506    0.0000 H       1  UNL1        0.0797
     27 H           6.4435    2.9620    0.0000 H       1  UNL1        0.0815
     28 H           5.7251    3.3767    0.0000 H       1  UNL1        0.0815
     29 H           6.6244    1.3616    0.0000 H       1  UNL1        0.0355
     30 H           6.7955    2.1732    0.0000 H       1  UNL1        0.0355
     31 H           5.8148    1.3628    0.0000 H       1  UNL1        0.0861
     32 H           5.8583    2.1757    0.0000 H       1  UNL1        0.0861
     33 H           4.9946    0.4005    0.0000 H       1  UNL1        0.0627
     34 H           4.0020   -0.3873    0.0000 H       1  UNL1        0.0747
     35 H           4.4005    0.3030    0.0000 H       1  UNL1        0.0747
     36 H           4.2883   -1.2567    0.0000 H       1  UNL1        0.0440
     37 H           5.4566   -2.8501    0.0000 H       1  UNL1        0.0258
     38 H           6.2053   -2.3937    0.0000 H       1  UNL1        0.0258
     39 H           5.7490   -1.6450    0.0000 H       1  UNL1        0.0258
     40 H           4.8623   -0.0002    0.0000 H       1  UNL1        0.0238
     41 H           3.9855   -0.0002    0.0000 H       1  UNL1        0.0238
     42 H           3.9855   -0.8771    0.0000 H       1  UNL1        0.0238
     43 H           3.0799   -3.0513    0.0000 H       1  UNL1        0.0264
     44 H           3.7403   -3.6281    0.0000 H       1  UNL1        0.0264
     45 H           4.3170   -2.9677    0.0000 H       1  UNL1        0.0264
     46 H           4.4180   -3.4114    0.0000 H       1  UNL1        0.2103
     47 H           2.3909   -2.6949    0.0000 H       1  UNL1        0.2110
@<TRIPOS>UNITY_ATOM_ATTR
2 1
charge -1
8 1
charge 1
@<TRIPOS>BOND
     1     1    10    1
     2     1    20    1
     3     2     8    1
     4     3    16    1
     5     3    21    1
     6     4    17    1
     7     4    46    1
     8     5    19    1
     9     5    47    1
    10     6    20    2
    11     7    21    2
    12     8     9    1
    13     8    11    1
    14     8    13    1
    15     9    10    1
    16     9    14    1
    17     9    25    1
    18    10    12    1
    19    10    26    1
    20    11    12    1
    21    11    27    1
    22    11    28    1
    23    12    29    1
    24    12    30    1
    25    13    15    1
    26    13    31    1
    27    13    32    1
    28    14    15    2
    29    14    16    1
    30    15    33    1
    31    16    34    1
    32    16    35    1
    33    17    18    1
    34    17    19    1
    35    17    22    1
    36    18    20    1
    37    18    23    1
    38    18    36    1
    39    19    21    1
    40    19    24    1
    41    22    37    1
    42    22    38    1
    43    22    39    1
    44    23    40    1
    45    23    41    1
    46    23    42    1
    47    24    43    1
    48    24    44    1
    49    24    45    1
