@<TRIPOS>MOLECULE
IMPHY003800
 37 38 0 0 0
SMALL
GASTEIGER

@<TRIPOS>ATOM
      1 O           3.5836   -0.4324    0.0000 O.3     1  UNL1       -0.4533
      2 O           2.0000    0.3724    0.0000 O.2     1  UNL1       -0.2453
      3 C           4.5298    0.8724    0.0000 C.3     1  UNL1        0.0314
      4 C           4.5298   -0.1276    0.0000 C.3     1  UNL1        0.1288
      5 C           5.3958    1.3724    0.0000 C.3     1  UNL1       -0.0386
      6 C           6.2619    0.8724    0.0000 C.3     1  UNL1       -0.0313
      7 C           3.5836    1.1771    0.0000 C.2     1  UNL1        0.0364
      8 C           5.3958   -0.6276    0.0000 C.2     1  UNL1       -0.0444
      9 C           6.2619   -0.1276    0.0000 C.2     1  UNL1       -0.0765
     10 C           5.3958   -1.6276    0.0000 C.2     1  UNL1       -0.0728
     11 C           3.0000    0.3724    0.0000 C.2     1  UNL1        0.3356
     12 C           6.2619   -2.1276    0.0000 C.3     1  UNL1       -0.0284
     13 C           7.1279   -1.6276    0.0000 C.3     1  UNL1       -0.0308
     14 C           7.1279   -0.6276    0.0000 C.2     1  UNL1       -0.0847
     15 C           3.2729    2.1276    0.0000 C.2     1  UNL1       -0.0883
     16 C           4.8053   -0.6577    0.0000 C.3     1  UNL1       -0.0438
     17 C           4.5298   -2.1276    0.0000 C.3     1  UNL1       -0.0437
     18 H           4.4399    1.7176    0.0000 H       1  UNL1        0.0390
     19 H           4.4399   -0.9729    0.0000 H       1  UNL1        0.0785
     20 H           5.7944    1.8473    0.0000 H       1  UNL1        0.0275
     21 H           4.9973    1.8473    0.0000 H       1  UNL1        0.0275
     22 H           6.8725    0.7647    0.0000 H       1  UNL1        0.0310
     23 H           6.4739    1.4550    0.0000 H       1  UNL1        0.0310
     24 H           6.0064   -0.7353    0.0000 H       1  UNL1        0.0608
     25 H           5.8633   -2.6026    0.0000 H       1  UNL1        0.0313
     26 H           6.6604   -2.6026    0.0000 H       1  UNL1        0.0313
     27 H           7.3400   -2.2102    0.0000 H       1  UNL1        0.0310
     28 H           7.7385   -1.5200    0.0000 H       1  UNL1        0.0310
     29 H           7.6648   -0.3176    0.0000 H       1  UNL1        0.0572
     30 H           3.6870    2.5891    0.0000 H       1  UNL1        0.0540
     31 H           2.6663    2.2555    0.0000 H       1  UNL1        0.0540
     32 H           4.5933   -0.0751    0.0000 H       1  UNL1        0.0274
     33 H           4.2227   -0.8698    0.0000 H       1  UNL1        0.0274
     34 H           5.0174   -1.2403    0.0000 H       1  UNL1        0.0274
     35 H           4.2198   -1.5907    0.0000 H       1  UNL1        0.0274
     36 H           3.9929   -2.4376    0.0000 H       1  UNL1        0.0274
     37 H           4.8398   -2.6646    0.0000 H       1  UNL1        0.0274
@<TRIPOS>BOND
     1     1     4    1
     2     1    11    1
     3     2    11    2
     4     3     4    1
     5     3     5    1
     6     3     7    1
     7     3    18    1
     8     4     8    1
     9     4    19    1
    10     5     6    1
    11     5    20    1
    12     5    21    1
    13     6     9    1
    14     6    22    1
    15     6    23    1
    16     7    11    1
    17     7    15    2
    18     8    10    2
    19     8    24    1
    20     9    14    2
    21     9    16    1
    22    10    12    1
    23    10    17    1
    24    12    13    1
    25    12    25    1
    26    12    26    1
    27    13    14    1
    28    13    27    1
    29    13    28    1
    30    14    29    1
    31    15    30    1
    32    15    31    1
    33    16    32    1
    34    16    33    1
    35    16    34    1
    36    17    35    1
    37    17    36    1
    38    17    37    1
