@<TRIPOS>MOLECULE
IMPHY003432
 42 45 0 0 0
SMALL
GASTEIGER

@<TRIPOS>ATOM
      1 O           6.3580   -0.1776    0.0000 O.3     1  UNL1       -0.4828
      2 O          10.8076    0.1273    0.0000 O.3     1  UNL1       -0.4525
      3 O          10.8014   -1.4821    0.0000 O.3     1  UNL1       -0.4489
      4 O           6.3465    2.8917    0.0000 O.2     1  UNL1       -0.2917
      5 O           8.9846   -2.6704    0.0000 O.3     1  UNL1       -0.4913
      6 O           4.5981    2.8571    0.0000 O.3     1  UNL1       -0.5027
      7 O           2.8660    1.8571    0.0000 O.3     1  UNL1       -0.4885
      8 O           2.8660   -0.1429    0.0000 O.3     1  UNL1       -0.5031
      9 C           7.2641    0.3362    0.0000 C.3     1  UNL1        0.1324
     10 C           7.2641    1.3779    0.0000 C.3     1  UNL1        0.0520
     11 C           8.1282   -0.1671    0.0000 C.ar    1  UNL1        0.0002
     12 C           5.4641    1.3571    0.0000 C.ar    1  UNL1        0.1043
     13 C           6.3580    1.8917    0.0000 C.2     1  UNL1        0.1741
     14 C           5.4641    0.3571    0.0000 C.ar    1  UNL1        0.1391
     15 C           8.9962    0.3296    0.0000 C.ar    1  UNL1       -0.0092
     16 C           8.1244   -1.1671    0.0000 C.ar    1  UNL1       -0.0094
     17 C           9.8602   -0.1738    0.0000 C.ar    1  UNL1        0.1703
     18 C           9.8564   -1.1738    0.0000 C.ar    1  UNL1        0.2075
     19 C           8.9884   -1.6704    0.0000 C.ar    1  UNL1        0.1657
     20 C           4.5981    1.8571    0.0000 C.ar    1  UNL1        0.1764
     21 C           4.5981   -0.1429    0.0000 C.ar    1  UNL1        0.0262
     22 C           3.7320    1.3571    0.0000 C.ar    1  UNL1        0.2040
     23 C           3.7320    0.3571    0.0000 C.ar    1  UNL1        0.1657
     24 C          11.3881   -0.6797    0.0000 C.3     1  UNL1        0.2334
     25 C           8.1166   -3.1671    0.0000 C.3     1  UNL1        0.0790
     26 C           2.0000    1.3571    0.0000 C.3     1  UNL1        0.0791
     27 H           7.2605   -0.2837    0.0000 H       1  UNL1        0.0789
     28 H           7.8750    1.2718    0.0000 H       1  UNL1        0.0385
     29 H           7.4732    1.9616    0.0000 H       1  UNL1        0.0385
     30 H           8.9985    0.9496    0.0000 H       1  UNL1        0.0659
     31 H           7.5862   -1.4750    0.0000 H       1  UNL1        0.0659
     32 H           4.5981   -0.7629    0.0000 H       1  UNL1        0.0692
     33 H          11.8474   -1.0962    0.0000 H       1  UNL1        0.1166
     34 H          11.8506   -0.2667    0.0000 H       1  UNL1        0.1166
     35 H           4.0611    3.1671    0.0000 H       1  UNL1        0.2923
     36 H           2.8660   -0.7629    0.0000 H       1  UNL1        0.2923
     37 H           7.8087   -2.6289    0.0000 H       1  UNL1        0.0660
     38 H           7.5785   -3.4750    0.0000 H       1  UNL1        0.0660
     39 H           8.4246   -3.7052    0.0000 H       1  UNL1        0.0660
     40 H           1.6900    1.8940    0.0000 H       1  UNL1        0.0660
     41 H           1.4631    1.0471    0.0000 H       1  UNL1        0.0660
     42 H           2.3100    0.8201    0.0000 H       1  UNL1        0.0660
@<TRIPOS>BOND
     1     1     9    1
     2     1    14    1
     3     2    17    1
     4     2    24    1
     5     3    18    1
     6     3    24    1
     7     4    13    2
     8     5    19    1
     9     5    25    1
    10     6    20    1
    11     6    35    1
    12     7    22    1
    13     7    26    1
    14     8    23    1
    15     8    36    1
    16     9    10    1
    17     9    11    1
    18     9    27    1
    19    10    13    1
    20    10    28    1
    21    10    29    1
    22    11    15   ar
    23    11    16   ar
    24    12    13    1
    25    12    14   ar
    26    12    20   ar
    27    14    21   ar
    28    15    17   ar
    29    15    30    1
    30    16    19   ar
    31    16    31    1
    32    17    18   ar
    33    18    19   ar
    34    20    22   ar
    35    21    23   ar
    36    21    32    1
    37    22    23   ar
    38    24    33    1
    39    24    34    1
    40    25    37    1
    41    25    38    1
    42    25    39    1
    43    26    40    1
    44    26    41    1
    45    26    42    1
