@<TRIPOS>MOLECULE
IMPHY008697
 15 15 0 0 0
SMALL
GASTEIGER

@<TRIPOS>ATOM
      1 S           3.0878   -1.1739    0.0000 S.2     1  UNL1       -0.1045
      2 C           3.5878    0.3649    0.0000 C.ar    1  UNL1       -0.0405
      3 C           2.5878    0.3649    0.0000 C.ar    1  UNL1       -0.0405
      4 C           4.1756    1.1739    0.0000 C.3     1  UNL1       -0.0390
      5 C           2.0000    1.1739    0.0000 C.3     1  UNL1       -0.0390
      6 C           3.8968   -0.5861    0.0000 C.ar    1  UNL1       -0.0212
      7 C           2.2788   -0.5861    0.0000 C.ar    1  UNL1       -0.0212
      8 H           4.6772    0.8095    0.0000 H       1  UNL1        0.0278
      9 H           4.5400    1.6755    0.0000 H       1  UNL1        0.0278
     10 H           3.6740    1.5384    0.0000 H       1  UNL1        0.0278
     11 H           2.5016    1.5384    0.0000 H       1  UNL1        0.0278
     12 H           1.6356    1.6755    0.0000 H       1  UNL1        0.0278
     13 H           1.4984    0.8095    0.0000 H       1  UNL1        0.0278
     14 H           4.4865   -0.7777    0.0000 H       1  UNL1        0.0696
     15 H           1.6891   -0.7777    0.0000 H       1  UNL1        0.0696
@<TRIPOS>BOND
     1     1     6   ar
     2     1     7   ar
     3     2     3   ar
     4     2     4    1
     5     2     6   ar
     6     3     5    1
     7     3     7   ar
     8     4     8    1
     9     4     9    1
    10     4    10    1
    11     5    11    1
    12     5    12    1
    13     5    13    1
    14     6    14    1
    15     7    15    1
