@<TRIPOS>MOLECULE
IMPHY017092
 32 31 0 0 0
SMALL
GASTEIGER

@<TRIPOS>ATOM
      1 C           3.7320   -0.3170    0.0000 C.3     1  UNL1       -0.0325
      2 C           4.5981    0.1830    0.0000 C.3     1  UNL1       -0.0387
      3 C           2.8660   -0.8170    0.0000 C.3     1  UNL1       -0.0505
      4 C           5.4641   -0.3170    0.0000 C.3     1  UNL1       -0.0502
      5 C           3.2320    0.5490    0.0000 C.3     1  UNL1       -0.0596
      6 C           4.2320   -1.1830    0.0000 C.3     1  UNL1       -0.0596
      7 C           4.5981    1.1830    0.0000 C.3     1  UNL1       -0.0619
      8 C           6.3301    0.1830    0.0000 C.3     1  UNL1       -0.0557
      9 C           2.0000   -0.3170    0.0000 C.3     1  UNL1       -0.0648
     10 C           7.1962   -0.3170    0.0000 C.3     1  UNL1       -0.0653
     11 H           5.1350    0.4930    0.0000 H       1  UNL1        0.0303
     12 H           2.4675   -1.2919    0.0000 H       1  UNL1        0.0268
     13 H           3.2646   -1.2919    0.0000 H       1  UNL1        0.0268
     14 H           5.0656   -0.7919    0.0000 H       1  UNL1        0.0268
     15 H           5.8626   -0.7919    0.0000 H       1  UNL1        0.0268
     16 H           3.7690    0.8590    0.0000 H       1  UNL1        0.0235
     17 H           2.9220    1.0860    0.0000 H       1  UNL1        0.0235
     18 H           2.6951    0.2390    0.0000 H       1  UNL1        0.0235
     19 H           3.6951   -1.4930    0.0000 H       1  UNL1        0.0235
     20 H           4.5420   -1.7200    0.0000 H       1  UNL1        0.0235
     21 H           4.7690   -0.8730    0.0000 H       1  UNL1        0.0235
     22 H           5.2181    1.1830    0.0000 H       1  UNL1        0.0233
     23 H           4.5981    1.8030    0.0000 H       1  UNL1        0.0233
     24 H           3.9781    1.1830    0.0000 H       1  UNL1        0.0233
     25 H           6.7287    0.6580    0.0000 H       1  UNL1        0.0263
     26 H           5.9316    0.6580    0.0000 H       1  UNL1        0.0263
     27 H           2.3100    0.2199    0.0000 H       1  UNL1        0.0230
     28 H           1.4631   -0.0070    0.0000 H       1  UNL1        0.0230
     29 H           1.6900   -0.8539    0.0000 H       1  UNL1        0.0230
     30 H           6.8862   -0.8539    0.0000 H       1  UNL1        0.0230
     31 H           7.7331   -0.6270    0.0000 H       1  UNL1        0.0230
     32 H           7.5062    0.2199    0.0000 H       1  UNL1        0.0230
@<TRIPOS>BOND
     1     1     2    1
     2     1     3    1
     3     1     5    1
     4     1     6    1
     5     2     4    1
     6     2     7    1
     7     2    11    1
     8     3     9    1
     9     3    12    1
    10     3    13    1
    11     4     8    1
    12     4    14    1
    13     4    15    1
    14     5    16    1
    15     5    17    1
    16     5    18    1
    17     6    19    1
    18     6    20    1
    19     6    21    1
    20     7    22    1
    21     7    23    1
    22     7    24    1
    23     8    10    1
    24     8    25    1
    25     8    26    1
    26     9    27    1
    27     9    28    1
    28     9    29    1
    29    10    30    1
    30    10    31    1
    31    10    32    1
