@<TRIPOS>MOLECULE
IMPHY011437
 25 24 0 0 0
SMALL
GASTEIGER

@<TRIPOS>ATOM
      1 O           4.5981   -1.1550    0.0000 O.3     1  UNL1       -0.3767
      2 O           5.4641    1.3450    0.0000 O.3     1  UNL1       -0.3867
      3 O           7.1962    0.3450    0.0000 O.3     1  UNL1       -0.3894
      4 O           2.0000    0.3450    0.0000 O.2     1  UNL1       -0.3009
      5 C           5.4641    0.3450    0.0000 C.3     1  UNL1        0.1071
      6 C           4.5981   -0.1550    0.0000 C.3     1  UNL1        0.0929
      7 C           6.3301   -0.1550    0.0000 C.3     1  UNL1        0.0807
      8 C           3.7320    0.3450    0.0000 C.3     1  UNL1        0.0316
      9 C           6.3301   -1.1550    0.0000 C.3     1  UNL1       -0.0364
     10 C           2.8660   -0.1550    0.0000 C.2     1  UNL1        0.1228
     11 C           3.7320   -1.6550    0.0000 C.3     1  UNL1        0.0369
     12 H           6.0010    0.6550    0.0000 H       1  UNL1        0.0645
     13 H           5.1350   -0.4650    0.0000 H       1  UNL1        0.0626
     14 H           6.8671   -0.4650    0.0000 H       1  UNL1        0.0617
     15 H           4.1306    0.8199    0.0000 H       1  UNL1        0.0365
     16 H           3.3335    0.8199    0.0000 H       1  UNL1        0.0365
     17 H           5.7101   -1.1550    0.0000 H       1  UNL1        0.0255
     18 H           6.3301   -1.7750    0.0000 H       1  UNL1        0.0255
     19 H           6.9501   -1.1550    0.0000 H       1  UNL1        0.0255
     20 H           6.0010    1.6550    0.0000 H       1  UNL1        0.2100
     21 H           2.8660   -0.7750    0.0000 H       1  UNL1        0.1027
     22 H           7.7331    0.0350    0.0000 H       1  UNL1        0.2099
     23 H           3.4220   -1.1181    0.0000 H       1  UNL1        0.0524
     24 H           3.1951   -1.9650    0.0000 H       1  UNL1        0.0524
     25 H           4.0420   -2.1919    0.0000 H       1  UNL1        0.0524
@<TRIPOS>BOND
     1     6     1    1
     2     1    11    1
     3     5     2    1
     4     2    20    1
     5     7     3    1
     6     3    22    1
     7     4    10    2
     8     5     6    1
     9     5     7    1
    10     5    12    1
    11     6     8    1
    12     6    13    1
    13     7     9    1
    14     7    14    1
    15     8    10    1
    16     8    15    1
    17     8    16    1
    18     9    17    1
    19     9    18    1
    20     9    19    1
    21    10    21    1
    22    11    23    1
    23    11    24    1
    24    11    25    1
