@<TRIPOS>MOLECULE
IMPHY014401
 94 98 0 0 0
SMALL
GASTEIGER

@<TRIPOS>ATOM
      1 O           6.8671   -4.4699    0.0000 O.3     1  UNL1       -0.3451
      2 O           5.1350   -4.4699    0.0000 O.3     1  UNL1       -0.3405
      3 O           6.8671   -6.4699    0.0000 O.3     1  UNL1       -0.3841
      4 O           5.1350   -7.4699    0.0000 O.3     1  UNL1       -0.3864
      5 O           3.4030   -6.4699    0.0000 O.3     1  UNL1       -0.3865
      6 O           2.5369   -4.9699    0.0000 O.3     1  UNL1       -0.3924
      7 C           6.8963    1.7270    0.0000 C.3     1  UNL1       -0.0222
      8 C           7.7643    1.2303    0.0000 C.3     1  UNL1       -0.0136
      9 C           7.1018    2.6996    0.0000 C.3     1  UNL1       -0.0291
     10 C           6.9040   -0.2730    0.0000 C.3     1  UNL1       -0.0102
     11 C           6.0322    1.2236    0.0000 C.3     1  UNL1       -0.0462
     12 C           7.7681    0.2303    0.0000 C.2     1  UNL1       -0.0620
     13 C           8.4987    1.9002    0.0000 C.3     1  UNL1       -0.0457
     14 C           6.8920   -1.3146    0.0000 C.3     1  UNL1       -0.0041
     15 C           8.0901    2.8065    0.0000 C.3     1  UNL1       -0.0486
     16 C           6.0361    0.2237    0.0000 C.3     1  UNL1       -0.0452
     17 C           6.0284    2.2236    0.0000 C.3     1  UNL1       -0.0587
     18 C           6.4311    3.4413    0.0000 C.3     1  UNL1       -0.0224
     19 C           7.7920   -1.8389    0.0000 C.2     1  UNL1       -0.0606
     20 C           5.9421   -1.8389    0.0000 C.3     1  UNL1       -0.0410
     21 C           8.6801   -0.2730    0.0000 C.2     1  UNL1       -0.0620
     22 C           6.0279   -0.8112    0.0000 C.3     1  UNL1       -0.0553
     23 C           7.8046   -2.9238    0.0000 C.3     1  UNL1       -0.0044
     24 C           5.9295   -2.9238    0.0000 C.3     1  UNL1       -0.0254
     25 C           8.6921   -1.3146    0.0000 C.2     1  UNL1       -0.0619
     26 C           6.8671   -3.4699    0.0000 C.3     1  UNL1        0.0655
     27 C           5.4534    3.2313    0.0000 C.3     1  UNL1       -0.0587
     28 C           6.7381    4.3930    0.0000 C.2     1  UNL1       -0.0846
     29 C           6.0674    5.1348    0.0000 C.2     1  UNL1       -0.0846
     30 C           6.0010   -4.9699    0.0000 C.3     1  UNL1        0.1882
     31 C           6.3744    6.0865    0.0000 C.3     1  UNL1       -0.0234
     32 C           6.0010   -5.9699    0.0000 C.3     1  UNL1        0.1341
     33 C           5.7036    6.8282    0.0000 C.3     1  UNL1       -0.0407
     34 C           5.1350   -6.4699    0.0000 C.3     1  UNL1        0.1141
     35 C           7.3521    6.2964    0.0000 C.3     1  UNL1       -0.0587
     36 C           4.2690   -4.9699    0.0000 C.3     1  UNL1        0.1130
     37 C           4.2690   -5.9699    0.0000 C.3     1  UNL1        0.1119
     38 C           6.0106    7.7799    0.0000 C.3     1  UNL1       -0.0621
     39 C           4.7259    6.6182    0.0000 C.3     1  UNL1       -0.0621
     40 C           3.4030   -4.4699    0.0000 C.3     1  UNL1        0.0730
     41 H           8.5426    0.8886    0.0000 H       1  UNL1        0.0351
     42 H           7.4044    3.4939    0.0000 H       1  UNL1        0.0312
     43 H           7.6385   -0.7008    0.0000 H       1  UNL1        0.0354
     44 H           5.8179    1.8054    0.0000 H       1  UNL1        0.0271
     45 H           5.4221    1.1136    0.0000 H       1  UNL1        0.0271
     46 H           8.8661    1.4008    0.0000 H       1  UNL1        0.0271
     47 H           9.0340    2.2131    0.0000 H       1  UNL1        0.0271
     48 H           8.6790    3.0005    0.0000 H       1  UNL1        0.0268
     49 H           7.9590    3.4124    0.0000 H       1  UNL1        0.0268
     50 H           5.4251    0.3290    0.0000 H       1  UNL1        0.0271
     51 H           5.8263   -0.3598    0.0000 H       1  UNL1        0.0271
     52 H           6.3363    2.7618    0.0000 H       1  UNL1        0.0235
     53 H           5.4902    2.5316    0.0000 H       1  UNL1        0.0235
     54 H           5.7204    1.6855    0.0000 H       1  UNL1        0.0235
     55 H           6.0152    3.9012    0.0000 H       1  UNL1        0.0343
     56 H           5.7398   -1.2528    0.0000 H       1  UNL1        0.0275
     57 H           5.3300   -1.9379    0.0000 H       1  UNL1        0.0275
     58 H           9.2122    0.0452    0.0000 H       1  UNL1        0.0617
     59 H           6.3400   -0.2755    0.0000 H       1  UNL1        0.0238
     60 H           5.4922   -0.4992    0.0000 H       1  UNL1        0.0238
     61 H           5.7158   -1.3470    0.0000 H       1  UNL1        0.0238
     62 H           8.0204   -3.5050    0.0000 H       1  UNL1        0.0335
     63 H           8.4142   -2.8106    0.0000 H       1  UNL1        0.0335
     64 H           5.3199   -2.8106    0.0000 H       1  UNL1        0.0290
     65 H           5.7137   -3.5050    0.0000 H       1  UNL1        0.0290
     66 H           9.2314   -1.6204    0.0000 H       1  UNL1        0.0617
     67 H           7.4046   -3.7789    0.0000 H       1  UNL1        0.0600
     68 H           5.3232    3.8375    0.0000 H       1  UNL1        0.0235
     69 H           4.8472    3.1011    0.0000 H       1  UNL1        0.0235
     70 H           5.5836    2.6252    0.0000 H       1  UNL1        0.0235
     71 H           7.3442    4.5232    0.0000 H       1  UNL1        0.0572
     72 H           5.4612    5.0046    0.0000 H       1  UNL1        0.0572
     73 H           6.0010   -4.3499    0.0000 H       1  UNL1        0.0937
     74 H           6.5647    6.6765    0.0000 H       1  UNL1        0.0343
     75 H           6.0010   -6.5899    0.0000 H       1  UNL1        0.0671
     76 H           5.5133    6.2381    0.0000 H       1  UNL1        0.0301
     77 H           4.5981   -6.7799    0.0000 H       1  UNL1        0.0648
     78 H           7.4822    5.6903    0.0000 H       1  UNL1        0.0235
     79 H           7.9582    6.4266    0.0000 H       1  UNL1        0.0235
     80 H           7.2219    6.9026    0.0000 H       1  UNL1        0.0235
     81 H           4.2690   -4.3499    0.0000 H       1  UNL1        0.0647
     82 H           4.2690   -6.5899    0.0000 H       1  UNL1        0.0647
     83 H           6.6007    7.5896    0.0000 H       1  UNL1        0.0233
     84 H           6.2010    8.3700    0.0000 H       1  UNL1        0.0233
     85 H           5.4206    7.9702    0.0000 H       1  UNL1        0.0233
     86 H           4.5958    7.2244    0.0000 H       1  UNL1        0.0233
     87 H           4.1198    6.4880    0.0000 H       1  UNL1        0.0233
     88 H           4.8561    6.0120    0.0000 H       1  UNL1        0.0233
     89 H           6.8671   -7.0899    0.0000 H       1  UNL1        0.2101
     90 H           3.8015   -3.9950    0.0000 H       1  UNL1        0.0584
     91 H           3.0044   -3.9950    0.0000 H       1  UNL1        0.0584
     92 H           4.5981   -7.7799    0.0000 H       1  UNL1        0.2100
     93 H           3.4030   -7.0899    0.0000 H       1  UNL1        0.2100
     94 H           2.0000   -4.6599    0.0000 H       1  UNL1        0.2095
@<TRIPOS>BOND
     1    26     1    1
     2    30     1    1
     3     2    30    1
     4     2    36    1
     5    32     3    1
     6     3    89    1
     7    34     4    1
     8     4    92    1
     9    37     5    1
    10     5    93    1
    11     6    40    1
    12     6    94    1
    13     7     8    1
    14     7     9    1
    15     7    11    1
    16     7    17    1
    17     8    12    1
    18     8    13    1
    19     8    41    1
    20     9    15    1
    21     9    18    1
    22     9    42    1
    23    10    12    1
    24    10    14    1
    25    10    16    1
    26    10    43    1
    27    11    16    1
    28    11    44    1
    29    11    45    1
    30    12    21    2
    31    13    15    1
    32    13    46    1
    33    13    47    1
    34    14    19    1
    35    14    20    1
    36    14    22    1
    37    15    48    1
    38    15    49    1
    39    16    50    1
    40    16    51    1
    41    17    52    1
    42    17    53    1
    43    17    54    1
    44    18    27    1
    45    18    28    1
    46    18    55    1
    47    19    23    1
    48    19    25    2
    49    20    24    1
    50    20    56    1
    51    20    57    1
    52    21    25    1
    53    21    58    1
    54    22    59    1
    55    22    60    1
    56    22    61    1
    57    23    26    1
    58    23    62    1
    59    23    63    1
    60    24    26    1
    61    24    64    1
    62    24    65    1
    63    25    66    1
    64    26    67    1
    65    27    68    1
    66    27    69    1
    67    27    70    1
    68    28    29    2
    69    28    71    1
    70    29    31    1
    71    29    72    1
    72    30    32    1
    73    30    73    1
    74    31    33    1
    75    31    35    1
    76    31    74    1
    77    32    34    1
    78    32    75    1
    79    33    38    1
    80    33    39    1
    81    33    76    1
    82    34    37    1
    83    34    77    1
    84    35    78    1
    85    35    79    1
    86    35    80    1
    87    36    37    1
    88    36    40    1
    89    36    81    1
    90    37    82    1
    91    38    83    1
    92    38    84    1
    93    38    85    1
    94    39    86    1
    95    39    87    1
    96    39    88    1
    97    40    90    1
    98    40    91    1
