@<TRIPOS>MOLECULE
IMPHY001149
 89 91 0 0 0
SMALL
GASTEIGER

@<TRIPOS>ATOM
      1 O           8.6148   -1.4981    0.0000 O.3     1  UNL1       -0.5060
      2 O           6.8828    1.5019    0.0000 O.3     1  UNL1       -0.5055
      3 O          10.3469    1.5019    0.0000 O.3     1  UNL1       -0.5055
      4 O           9.4808    3.0019    0.0000 O.2     1  UNL1       -0.2915
      5 O           4.9132   -0.1507    0.0000 O.3     1  UNL1       -0.5055
      6 O           7.5668   -2.3774    0.0000 O.3     1  UNL1       -0.5060
      7 O           4.3117   -3.5623    0.0000 O.3     1  UNL1       -0.4939
      8 O          11.6325    1.0340    0.0000 O.3     1  UNL1       -0.5060
      9 O          11.0309   -2.3774    0.0000 O.3     1  UNL1       -0.5055
     10 O          14.2861   -1.1927    0.0000 O.3     1  UNL1       -0.4939
     11 O           3.2856   -0.7432    0.0000 O.2     1  UNL1       -0.2915
     12 O          12.3577   -3.4908    0.0000 O.2     1  UNL1       -0.2921
     13 C           7.7488    0.0019    0.0000 C.ar    1  UNL1        0.0411
     14 C           9.4808    0.0019    0.0000 C.ar    1  UNL1        0.0411
     15 C           6.8828   -0.4981    0.0000 C.3     1  UNL1        0.0115
     16 C           8.6148    1.5019    0.0000 C.ar    1  UNL1        0.1011
     17 C           8.6148   -0.4981    0.0000 C.ar    1  UNL1        0.1308
     18 C          10.3469   -0.4981    0.0000 C.3     1  UNL1        0.0115
     19 C           7.7488    3.0019    0.0000 C.3     1  UNL1        0.0193
     20 C           7.7488    1.0019    0.0000 C.ar    1  UNL1        0.1378
     21 C           9.4808    1.0019    0.0000 C.ar    1  UNL1        0.1378
     22 C           6.2401   -1.2642    0.0000 C.ar    1  UNL1        0.0411
     23 C           8.6148    2.5019    0.0000 C.2     1  UNL1        0.1730
     24 C          11.3317   -0.6717    0.0000 C.ar    1  UNL1        0.0411
     25 C           7.7488    4.0019    0.0000 C.3     1  UNL1       -0.0463
     26 C           5.2552   -1.0905    0.0000 C.ar    1  UNL1        0.1378
     27 C           4.6124   -1.8566    0.0000 C.ar    1  UNL1        0.1013
     28 C           6.5820   -2.2038    0.0000 C.ar    1  UNL1        0.1302
     29 C           5.9392   -2.9698    0.0000 C.ar    1  UNL1        0.0337
     30 C           4.9545   -2.7963    0.0000 C.ar    1  UNL1        0.1405
     31 C           6.8828    2.5019    0.0000 C.3     1  UNL1       -0.0554
     32 C          11.9745    0.0943    0.0000 C.ar    1  UNL1        0.1302
     33 C          11.6737   -1.6114    0.0000 C.ar    1  UNL1        0.1378
     34 C           3.6276   -1.6829    0.0000 C.2     1  UNL1        0.1727
     35 C           2.9848   -2.4490    0.0000 C.3     1  UNL1        0.0167
     36 C          12.9593   -0.0793    0.0000 C.ar    1  UNL1        0.0337
     37 C          12.6585   -1.7850    0.0000 C.ar    1  UNL1        0.1007
     38 C          13.3013   -1.0190    0.0000 C.ar    1  UNL1        0.1404
     39 C           6.8828    4.5019    0.0000 C.3     1  UNL1       -0.0646
     40 C           6.2812   -3.9095    0.0000 C.3     1  UNL1       -0.0327
     41 C           2.0000   -2.2753    0.0000 C.3     1  UNL1       -0.0556
     42 C           3.3269   -3.3887    0.0000 C.3     1  UNL1       -0.0556
     43 C          13.6021    0.6867    0.0000 C.3     1  UNL1       -0.0327
     44 C          13.0005   -2.7247    0.0000 C.2     1  UNL1        0.1672
     45 C          13.9853   -2.8984    0.0000 C.3     1  UNL1       -0.0012
     46 C           4.6536   -4.5019    0.0000 C.3     1  UNL1        0.0788
     47 C          14.9289   -0.4266    0.0000 C.3     1  UNL1        0.0788
     48 H           6.8108    0.1177    0.0000 H       1  UNL1        0.0366
     49 H           7.2813   -0.9730    0.0000 H       1  UNL1        0.0366
     50 H           9.8496   -0.8683    0.0000 H       1  UNL1        0.0366
     51 H          10.5589    0.0845    0.0000 H       1  UNL1        0.0366
     52 H           7.7488    2.3819    0.0000 H       1  UNL1        0.0378
     53 H           8.3594    3.8943    0.0000 H       1  UNL1        0.0269
     54 H           7.9608    4.5845    0.0000 H       1  UNL1        0.0269
     55 H           6.5728    3.0389    0.0000 H       1  UNL1        0.0237
     56 H           6.3458    2.1919    0.0000 H       1  UNL1        0.0237
     57 H           7.1928    1.9650    0.0000 H       1  UNL1        0.0237
     58 H           2.5863   -2.9239    0.0000 H       1  UNL1        0.0375
     59 H           7.1928    5.0389    0.0000 H       1  UNL1        0.0230
     60 H           6.3458    4.8119    0.0000 H       1  UNL1        0.0230
     61 H           6.5728    3.9650    0.0000 H       1  UNL1        0.0230
     62 H           8.0779   -1.8081    0.0000 H       1  UNL1        0.2922
     63 H           5.6986   -4.1216    0.0000 H       1  UNL1        0.0280
     64 H           6.4933   -4.4922    0.0000 H       1  UNL1        0.0280
     65 H           6.8638   -3.6975    0.0000 H       1  UNL1        0.0280
     66 H           6.3458    1.1919    0.0000 H       1  UNL1        0.2922
     67 H          10.8838    1.1919    0.0000 H       1  UNL1        0.2922
     68 H           2.1077   -1.6647    0.0000 H       1  UNL1        0.0236
     69 H           2.7443   -3.6007    0.0000 H       1  UNL1        0.0236
     70 H           3.5389   -3.9713    0.0000 H       1  UNL1        0.0236
     71 H           3.9095   -3.1766    0.0000 H       1  UNL1        0.0236
     72 H           1.3894   -2.1676    0.0000 H       1  UNL1        0.0236
     73 H           1.8923   -2.8859    0.0000 H       1  UNL1        0.0236
     74 H          14.0770    0.2882    0.0000 H       1  UNL1        0.0280
     75 H          14.0006    1.1617    0.0000 H       1  UNL1        0.0280
     76 H          13.1271    1.0853    0.0000 H       1  UNL1        0.0280
     77 H           4.3026   -0.0431    0.0000 H       1  UNL1        0.2922
     78 H           7.7789   -2.9601    0.0000 H       1  UNL1        0.2922
     79 H          12.0310    1.5090    0.0000 H       1  UNL1        0.2922
     80 H          11.2430   -2.9601    0.0000 H       1  UNL1        0.2922
     81 H          13.8777   -3.5090    0.0000 H       1  UNL1        0.0309
     82 H          14.5959   -3.0061    0.0000 H       1  UNL1        0.0309
     83 H          14.0930   -2.2878    0.0000 H       1  UNL1        0.0309
     84 H           4.0710   -4.7140    0.0000 H       1  UNL1        0.0660
     85 H           4.8657   -5.0846    0.0000 H       1  UNL1        0.0660
     86 H           5.2363   -4.2899    0.0000 H       1  UNL1        0.0660
     87 H          15.4038   -0.8251    0.0000 H       1  UNL1        0.0660
     88 H          15.3274    0.0483    0.0000 H       1  UNL1        0.0660
     89 H          14.4539   -0.0281    0.0000 H       1  UNL1        0.0660
@<TRIPOS>BOND
     1     1    17    1
     2     1    62    1
     3     2    20    1
     4     2    66    1
     5     3    21    1
     6     3    67    1
     7     4    23    2
     8     5    26    1
     9     5    77    1
    10     6    28    1
    11     6    78    1
    12     7    30    1
    13     7    46    1
    14     8    32    1
    15     8    79    1
    16     9    33    1
    17     9    80    1
    18    10    38    1
    19    10    47    1
    20    11    34    2
    21    12    44    2
    22    13    15    1
    23    13    17   ar
    24    13    20   ar
    25    14    17   ar
    26    14    18    1
    27    14    21   ar
    28    15    22    1
    29    15    48    1
    30    15    49    1
    31    16    20   ar
    32    16    21   ar
    33    16    23    1
    34    18    24    1
    35    18    50    1
    36    18    51    1
    37    19    23    1
    38    19    25    1
    39    19    31    1
    40    19    52    1
    41    22    26   ar
    42    22    28   ar
    43    24    32   ar
    44    24    33   ar
    45    25    39    1
    46    25    53    1
    47    25    54    1
    48    26    27   ar
    49    27    30   ar
    50    27    34    1
    51    28    29   ar
    52    29    30   ar
    53    29    40    1
    54    31    55    1
    55    31    56    1
    56    31    57    1
    57    32    36   ar
    58    33    37   ar
    59    34    35    1
    60    35    41    1
    61    35    42    1
    62    35    58    1
    63    36    38   ar
    64    36    43    1
    65    37    38   ar
    66    37    44    1
    67    39    59    1
    68    39    60    1
    69    39    61    1
    70    40    63    1
    71    40    64    1
    72    40    65    1
    73    41    68    1
    74    41    72    1
    75    41    73    1
    76    42    69    1
    77    42    70    1
    78    42    71    1
    79    43    74    1
    80    43    75    1
    81    43    76    1
    82    44    45    1
    83    45    81    1
    84    45    82    1
    85    45    83    1
    86    46    84    1
    87    46    85    1
    88    46    86    1
    89    47    87    1
    90    47    88    1
    91    47    89    1
