@<TRIPOS>MOLECULE
IMPHY001907
 49 53 0 0 0
SMALL
GASTEIGER

@<TRIPOS>ATOM
      1 O           2.4608   -0.2597    0.0000 O.3     1  UNL1       -0.3844
      2 O           5.7730    0.7184    0.0000 O.2     1  UNL1       -0.2896
      3 O           2.1722    2.1044    0.0000 O.3     1  UNL1       -0.4522
      4 O           2.9992    3.5627    0.0000 O.3     1  UNL1       -0.4526
      5 O           7.7510   -0.5144    0.0000 O.3     1  UNL1       -0.4914
      6 O           7.7510   -2.5627    0.0000 O.3     1  UNL1       -0.4914
      7 N           3.3548   -1.0385    0.0000 N.3     1  UNL1       -0.2869
      8 C           4.2208   -0.5385    0.0000 C.3     1  UNL1        0.1410
      9 C           3.4118    0.0493    0.0000 C.3     1  UNL1        0.1140
     10 C           5.0868   -1.0385    0.0000 C.ar    1  UNL1       -0.0099
     11 C           5.0298    0.0493    0.0000 C.2     1  UNL1        0.1910
     12 C           3.7208    1.0003    0.0000 C.ar    1  UNL1        0.0394
     13 C           3.3548   -2.0385    0.0000 C.3     1  UNL1        0.0039
     14 C           4.7208    1.0003    0.0000 C.ar    1  UNL1        0.0292
     15 C           5.0868   -2.0385    0.0000 C.ar    1  UNL1       -0.0370
     16 C           4.2208   -2.5385    0.0000 C.3     1  UNL1       -0.0144
     17 C           2.4888   -1.5385    0.0000 C.3     1  UNL1       -0.0115
     18 C           3.1862    1.8943    0.0000 C.ar    1  UNL1        0.1726
     19 C           5.9808   -0.5039    0.0000 C.ar    1  UNL1       -0.0106
     20 C           5.2555    1.8943    0.0000 C.ar    1  UNL1       -0.0472
     21 C           5.9808   -2.5732    0.0000 C.ar    1  UNL1       -0.0128
     22 C           3.7000    2.8003    0.0000 C.ar    1  UNL1        0.1666
     23 C           6.8869   -1.0177    0.0000 C.ar    1  UNL1        0.1618
     24 C           6.8869   -2.0593    0.0000 C.ar    1  UNL1        0.1618
     25 C           4.7416    2.8003    0.0000 C.ar    1  UNL1       -0.0155
     26 C           2.0570    3.1334    0.0000 C.3     1  UNL1        0.2332
     27 C           8.6189   -1.0110    0.0000 C.3     1  UNL1        0.0790
     28 C           7.7471   -3.5627    0.0000 C.3     1  UNL1        0.0790
     29 H           2.9734    0.4877    0.0000 H       1  UNL1        0.0672
     30 H           2.7442   -1.9308    0.0000 H       1  UNL1        0.0430
     31 H           3.1428   -2.6211    0.0000 H       1  UNL1        0.0430
     32 H           3.8223   -3.0135    0.0000 H       1  UNL1        0.0326
     33 H           4.6194   -3.0135    0.0000 H       1  UNL1        0.0326
     34 H           2.1788   -1.0016    0.0000 H       1  UNL1        0.0391
     35 H           1.9518   -1.8485    0.0000 H       1  UNL1        0.0391
     36 H           2.7988   -2.0754    0.0000 H       1  UNL1        0.0391
     37 H           5.9736    0.1161    0.0000 H       1  UNL1        0.0659
     38 H           5.8754    1.8871    0.0000 H       1  UNL1        0.0626
     39 H           5.9736   -3.1931    0.0000 H       1  UNL1        0.0658
     40 H           2.0000    0.1551    0.0000 H       1  UNL1        0.2103
     41 H           5.0537    3.3361    0.0000 H       1  UNL1        0.0655
     42 H           1.8607    3.7215    0.0000 H       1  UNL1        0.1166
     43 H           1.4515    3.0000    0.0000 H       1  UNL1        0.1166
     44 H           8.3110   -1.5492    0.0000 H       1  UNL1        0.0660
     45 H           9.1570   -1.3190    0.0000 H       1  UNL1        0.0660
     46 H           8.9268   -0.4729    0.0000 H       1  UNL1        0.0660
     47 H           7.1271   -3.5603    0.0000 H       1  UNL1        0.0660
     48 H           7.7447   -4.1826    0.0000 H       1  UNL1        0.0660
     49 H           8.3671   -3.5650    0.0000 H       1  UNL1        0.0660
@<TRIPOS>BOND
     1     9     1    1
     2     1    40    1
     3     2    11    2
     4     3    18    1
     5     3    26    1
     6     4    22    1
     7     4    26    1
     8     5    23    1
     9     5    27    1
    10     6    24    1
    11     6    28    1
    12     8     7    1
    13     7    13    1
    14     7    17    1
    15     8     9    1
    16     8    10    1
    17     8    11    1
    18     9    12    1
    19     9    29    1
    20    10    15   ar
    21    10    19   ar
    22    11    14    1
    23    12    14   ar
    24    12    18   ar
    25    13    16    1
    26    13    30    1
    27    13    31    1
    28    14    20   ar
    29    15    16    1
    30    15    21   ar
    31    16    32    1
    32    16    33    1
    33    17    34    1
    34    17    35    1
    35    17    36    1
    36    18    22   ar
    37    19    23   ar
    38    19    37    1
    39    20    25   ar
    40    20    38    1
    41    21    24   ar
    42    21    39    1
    43    22    25   ar
    44    23    24   ar
    45    25    41    1
    46    26    42    1
    47    26    43    1
    48    27    44    1
    49    27    45    1
    50    27    46    1
    51    28    47    1
    52    28    48    1
    53    28    49    1
