@<TRIPOS>MOLECULE
IMPHY002432
 44 48 0 0 0
SMALL
GASTEIGER

@<TRIPOS>ATOM
      1 C        2512.5600 2445.9100    0.0000 C.3     1  UNL1        0.0067
      2 C        2502.2300 2484.6200    0.0000 C.3     1  UNL1        0.0459
      3 C        2467.6900 2464.4700    0.0000 C.3     1  UNL1        0.0205
      4 C        2467.6900 2415.6300    0.0000 C.3     1  UNL1        0.1101
      5 C        2502.0300 2394.9900    0.0000 C.2     1  UNL1        0.3171
      6 O        2536.5800 2415.0400    0.0000 O.3     1  UNL1       -0.4444
      7 C        2570.9200 2394.3900    0.0000 C.3     1  UNL1        0.2556
      8 O        2502.0300 2354.9900    0.0000 O.2     1  UNL1       -0.2501
      9 C        2433.1500 2484.6200    0.0000 C.3     1  UNL1        0.0418
     10 C        2433.1500 2444.6200    0.0000 C.3     1  UNL1        0.0037
     11 C        2433.1500 2524.9100    0.0000 C.3     1  UNL1        0.0554
     12 C        2467.6900 2545.0600    0.0000 C.3     1  UNL1        0.1964
     13 C        2502.2300 2524.9100    0.0000 C.3     1  UNL1        0.1586
     14 O        2536.8700 2545.0600    0.0000 O.3     1  UNL1       -0.3507
     15 C        2571.4100 2524.9100    0.0000 C.3     1  UNL1        0.1337
     16 C        2571.4100 2484.6200    0.0000 C.2     1  UNL1       -0.0234
     17 C        2640.5000 2484.6200    0.0000 C.2     1  UNL1       -0.0455
     18 C        2668.7800 2456.3300    0.0000 C.3     1  UNL1        0.0261
     19 C        2640.5000 2524.9100    0.0000 C.3     1  UNL1        0.0460
     20 C        2605.9600 2545.0600    0.0000 C.3     1  UNL1        0.0423
     21 C        2675.1400 2544.8600    0.0000 C.ar    1  UNL1        0.0220
     22 C        2688.1400 2582.2800    0.0000 C.ar    1  UNL1        0.0398
     23 C        2728.4400 2582.2800    0.0000 C.ar    1  UNL1        0.1794
     24 O        2739.9500 2544.8600    0.0000 O.2     1  UNL1       -0.4477
     25 C        2706.8000 2520.4500    0.0000 C.ar    1  UNL1        0.1757
     26 O        2467.6900 2585.0600    0.0000 O.3     1  UNL1       -0.4497
     27 C        2502.3300 2605.0100    0.0000 C.2     1  UNL1        0.3175
     28 C        2536.5800 2584.4700    0.0000 C.3     1  UNL1        0.1212
     29 O        2502.3300 2645.0100    0.0000 O.2     1  UNL1       -0.2501
     30 C        2398.6100 2545.0600    0.0000 C.3     1  UNL1        0.0901
     31 C        2398.6100 2585.0600    0.0000 C.2     1  UNL1        0.2091
     32 O        2433.2500 2605.0100    0.0000 O.2     1  UNL1       -0.2882
     33 C        2433.2500 2565.0100    0.0000 C.3     1  UNL1        0.0105
     34 C        2364.0700 2524.9100    0.0000 C.3     1  UNL1        0.1625
     35 C        2364.0700 2484.6200    0.0000 C.3     1  UNL1        0.0769
     36 C        2398.6100 2464.4700    0.0000 C.3     1  UNL1        0.1716
     37 O        2398.6100 2424.4700    0.0000 O.3     1  UNL1       -0.4494
     38 C        2363.9700 2404.4200    0.0000 C.2     1  UNL1        0.3368
     39 C        2329.3300 2424.4700    0.0000 C.2     1  UNL1        0.0495
     40 C        2294.6900 2404.4200    0.0000 C.2     1  UNL1       -0.0236
     41 C        2260.0500 2424.4700    0.0000 C.3     1  UNL1        0.0306
     42 C        2329.3300 2464.4700    0.0000 C.3     1  UNL1        0.0375
     43 O        2363.9700 2364.4200    0.0000 O.2     1  UNL1       -0.2453
     44 O        2329.4300 2544.8600    0.0000 O.3     1  UNL1       -0.2226
@<TRIPOS>BOND
     1     1     2    1
     2     2     3    1
     3     2    13    1
     4     2    16    1
     5     3     4    1
     6     3     9    1
     7     4     5    1
     8     5     6    1
     9     5     8    2
    10     6     7    1
    11     9    10    1
    12     9    11    1
    13     9    36    1
    14    11    30    1
    15    12    11    1
    16    12    26    1
    17    13    12    1
    18    13    14    1
    19    14    15    1
    20    15    20    1
    21    16    15    1
    22    16    17    2
    23    17    18    1
    24    17    19    1
    25    19    21    1
    26    20    19    1
    27    21    22   ar
    28    21    25   ar
    29    22    23   ar
    30    23    24   ar
    31    25    24   ar
    32    26    27    1
    33    27    28    1
    34    27    29    2
    35    30    31    1
    36    30    33    1
    37    30    34    1
    38    31    32    2
    39    34    44    1
    40    35    34    1
    41    36    35    1
    42    36    37    1
    43    37    38    1
    44    38    39    1
    45    38    43    2
    46    39    40    2
    47    39    42    1
    48    40    41    1
