@<TRIPOS>MOLECULE
IMPHY011176
 80 84 0 0 0
SMALL
GASTEIGER

@<TRIPOS>ATOM
      1 O           4.5174    2.3830    0.0000 O.3     1  UNL1       -0.4596
      2 O          11.6973   -0.8874    0.0000 O.3     1  UNL1       -0.4559
      3 O           7.7303    3.5907    0.0000 O.2     1  UNL1       -0.2960
      4 O           6.2671   -1.5618    0.0000 O.3     1  UNL1       -0.3803
      5 O           4.4851   -2.4698    0.0000 O.3     1  UNL1       -0.4661
      6 O          12.4358    0.7631    0.0000 O.2     1  UNL1       -0.2508
      7 O           3.6988   -0.9265    0.0000 O.2     1  UNL1       -0.2479
      8 O          10.4663   -4.0604    0.0000 O.2     1  UNL1       -0.4706
      9 O           3.0648    1.4397    0.0000 O.2     1  UNL1       -0.2505
     10 C           6.7525    0.7761    0.0000 C.3     1  UNL1        0.0396
     11 C           7.9735   -0.0895    0.0000 C.3     1  UNL1       -0.0071
     12 C           5.4808   -0.0185    0.0000 C.3     1  UNL1        0.0166
     13 C           4.7036    0.6108    0.0000 C.3     1  UNL1        0.0097
     14 C           8.8025    0.4697    0.0000 C.2     1  UNL1       -0.0644
     15 C           9.8264   -1.0110    0.0000 C.3     1  UNL1        0.0163
     16 C           9.7457    0.0275    0.0000 C.3     1  UNL1       -0.0005
     17 C           6.4937    1.7420    0.0000 C.3     1  UNL1        0.0739
     18 C           5.0620    1.5444    0.0000 C.3     1  UNL1        0.1214
     19 C           8.0301   -1.1296    0.0000 C.3     1  UNL1       -0.0450
     20 C           7.2303    2.7247    0.0000 C.2     1  UNL1        0.1504
     21 C           8.9628   -1.5935    0.0000 C.3     1  UNL1       -0.0428
     22 C           8.5269    1.4309    0.0000 C.2     1  UNL1       -0.0705
     23 C           6.4936   -0.1898    0.0000 C.3     1  UNL1       -0.0519
     24 C           5.4285   -1.0172    0.0000 C.3     1  UNL1        0.1558
     25 C          10.7978   -1.4941    0.0000 C.3     1  UNL1        0.1368
     26 C          10.6309    0.6549    0.0000 C.3     1  UNL1        0.0521
     27 C           3.7377    0.8696    0.0000 C.3     1  UNL1       -0.0560
     28 C           3.9965   -0.0963    0.0000 C.3     1  UNL1       -0.0560
     29 C           9.9038   -2.0080    0.0000 C.3     1  UNL1       -0.0553
     30 C          11.6133    0.1943    0.0000 C.2     1  UNL1        0.3083
     31 C          10.8637   -2.4919    0.0000 C.ar    1  UNL1        0.0310
     32 C           4.5374   -1.4711    0.0000 C.2     1  UNL1        0.3361
     33 C           3.5188    2.3307    0.0000 C.2     1  UNL1        0.3100
     34 C          11.7097   -3.0251    0.0000 C.ar    1  UNL1       -0.0172
     35 C          10.0952   -3.1318    0.0000 C.ar    1  UNL1        0.0984
     36 C           2.9741    3.1694    0.0000 C.3     1  UNL1        0.0508
     37 C          11.4641   -3.9945    0.0000 C.ar    1  UNL1        0.0921
     38 C           3.5941   -2.9238    0.0000 C.3     1  UNL1        0.0817
     39 C           1.9755    3.1170    0.0000 C.3     1  UNL1       -0.0525
     40 C           3.4281    4.0604    0.0000 C.3     1  UNL1       -0.0525
     41 H           7.2688   -0.5649    0.0000 H       1  UNL1        0.0355
     42 H           4.7043   -0.3642    0.0000 H       1  UNL1        0.0347
     43 H           9.6700    0.8741    0.0000 H       1  UNL1        0.0357
     44 H           6.2737    2.5631    0.0000 H       1  UNL1        0.0457
     45 H           4.4454    1.4796    0.0000 H       1  UNL1        0.0749
     46 H           7.8531   -1.7238    0.0000 H       1  UNL1        0.0271
     47 H           7.4144   -1.0569    0.0000 H       1  UNL1        0.0271
     48 H           9.3923   -2.0406    0.0000 H       1  UNL1        0.0272
     49 H           8.5958   -2.0932    0.0000 H       1  UNL1        0.0272
     50 H           8.9365    1.8963    0.0000 H       1  UNL1        0.0580
     51 H           7.0924   -0.3503    0.0000 H       1  UNL1        0.0239
     52 H           6.3331   -0.7886    0.0000 H       1  UNL1        0.0239
     53 H           5.8947   -0.0293    0.0000 H       1  UNL1        0.0239
     54 H           5.3960   -1.6363    0.0000 H       1  UNL1        0.0713
     55 H          11.3546   -1.7670    0.0000 H       1  UNL1        0.0792
     56 H          10.1911    1.0919    0.0000 H       1  UNL1        0.0384
     57 H          10.9863    1.1629    0.0000 H       1  UNL1        0.0384
     58 H           4.4350   -0.5347    0.0000 H       1  UNL1        0.0236
     59 H           3.5581   -0.5347    0.0000 H       1  UNL1        0.0236
     60 H           3.5581    0.3421    0.0000 H       1  UNL1        0.0236
     61 H           3.5772    0.2707    0.0000 H       1  UNL1        0.0236
     62 H           3.1388    1.0301    0.0000 H       1  UNL1        0.0236
     63 H           3.8982    1.4685    0.0000 H       1  UNL1        0.0236
     64 H          10.5219   -1.9600    0.0000 H       1  UNL1        0.0237
     65 H           9.9518   -2.6261    0.0000 H       1  UNL1        0.0237
     66 H           9.2856   -2.0560    0.0000 H       1  UNL1        0.0237
     67 H           6.2347   -2.1809    0.0000 H       1  UNL1        0.2105
     68 H          12.2855   -2.7951    0.0000 H       1  UNL1        0.0653
     69 H           9.4942   -2.9795    0.0000 H       1  UNL1        0.1033
     70 H           3.5933    3.2018    0.0000 H       1  UNL1        0.0408
     71 H          11.8608   -4.4710    0.0000 H       1  UNL1        0.1029
     72 H           3.8756   -3.4762    0.0000 H       1  UNL1        0.0661
     73 H           3.0417   -3.2052    0.0000 H       1  UNL1        0.0661
     74 H           3.3126   -2.3713    0.0000 H       1  UNL1        0.0661
     75 H           2.8757    4.3419    0.0000 H       1  UNL1        0.0237
     76 H           3.7096    4.6128    0.0000 H       1  UNL1        0.0237
     77 H           3.9805    3.7789    0.0000 H       1  UNL1        0.0237
     78 H           2.0079    2.4979    0.0000 H       1  UNL1        0.0237
     79 H           1.3563    3.0846    0.0000 H       1  UNL1        0.0237
     80 H           1.9430    3.7362    0.0000 H       1  UNL1        0.0237
@<TRIPOS>BOND
     1    18     1    1
     2     1    33    1
     3     2    25    1
     4     2    30    1
     5     3    20    2
     6    24     4    1
     7     4    67    1
     8     5    32    1
     9     5    38    1
    10     6    30    2
    11     7    32    2
    12     8    35   ar
    13     8    37   ar
    14     9    33    2
    15    10    11    1
    16    10    12    1
    17    10    20    1
    18    10    23    1
    19    11    14    1
    20    11    19    1
    21    11    41    1
    22    12    13    1
    23    12    24    1
    24    12    42    1
    25    13    18    1
    26    13    27    1
    27    13    28    1
    28    14    16    1
    29    14    22    2
    30    15    16    1
    31    15    21    1
    32    15    25    1
    33    15    29    1
    34    16    26    1
    35    16    43    1
    36    17    18    1
    37    17    20    1
    38    17    22    1
    39    17    44    1
    40    18    45    1
    41    19    21    1
    42    19    46    1
    43    19    47    1
    44    21    48    1
    45    21    49    1
    46    22    50    1
    47    23    51    1
    48    23    52    1
    49    23    53    1
    50    24    32    1
    51    24    54    1
    52    25    31    1
    53    25    55    1
    54    26    30    1
    55    26    56    1
    56    26    57    1
    57    27    61    1
    58    27    62    1
    59    27    63    1
    60    28    58    1
    61    28    59    1
    62    28    60    1
    63    29    64    1
    64    29    65    1
    65    29    66    1
    66    31    34   ar
    67    31    35   ar
    68    33    36    1
    69    34    37   ar
    70    34    68    1
    71    35    69    1
    72    36    39    1
    73    36    40    1
    74    36    70    1
    75    37    71    1
    76    38    72    1
    77    38    73    1
    78    38    74    1
    79    39    78    1
    80    39    79    1
    81    39    80    1
    82    40    75    1
    83    40    76    1
    84    40    77    1
