@<TRIPOS>MOLECULE
IMPHY012629
 25 25 0 0 0
SMALL
GASTEIGER

@<TRIPOS>ATOM
      1 O           4.5981    1.9400    0.0000 O.3     1  UNL1       -0.3904
      2 C           3.7320    0.4400    0.0000 C.ar    1  UNL1       -0.0190
      3 C           2.8660   -0.0600    0.0000 C.ar    1  UNL1       -0.0448
      4 C           4.5981   -1.0600    0.0000 C.ar    1  UNL1       -0.0472
      5 C           3.7320   -1.5600    0.0000 C.ar    1  UNL1       -0.0473
      6 C           4.5981   -0.0600    0.0000 C.ar    1  UNL1       -0.0530
      7 C           2.8660   -1.0600    0.0000 C.ar    1  UNL1       -0.0553
      8 C           3.7320    1.4400    0.0000 C.3     1  UNL1        0.0695
      9 C           2.0000    0.4400    0.0000 C.3     1  UNL1       -0.0394
     10 C           5.4641   -1.5600    0.0000 C.3     1  UNL1       -0.0395
     11 C           3.7320   -2.5600    0.0000 C.3     1  UNL1       -0.0395
     12 H           5.1350    0.2500    0.0000 H       1  UNL1        0.0624
     13 H           2.3291   -1.3700    0.0000 H       1  UNL1        0.0623
     14 H           3.5200    2.0226    0.0000 H       1  UNL1        0.0607
     15 H           3.1215    1.3323    0.0000 H       1  UNL1        0.0607
     16 H           2.3100    0.9769    0.0000 H       1  UNL1        0.0278
     17 H           1.4631    0.7500    0.0000 H       1  UNL1        0.0278
     18 H           1.6900   -0.0969    0.0000 H       1  UNL1        0.0278
     19 H           5.1541   -2.0969    0.0000 H       1  UNL1        0.0278
     20 H           6.0010   -1.8700    0.0000 H       1  UNL1        0.0278
     21 H           5.7741   -1.0231    0.0000 H       1  UNL1        0.0278
     22 H           3.1120   -2.5600    0.0000 H       1  UNL1        0.0278
     23 H           3.7320   -3.1800    0.0000 H       1  UNL1        0.0278
     24 H           4.3520   -2.5600    0.0000 H       1  UNL1        0.0278
     25 H           4.5981    2.5600    0.0000 H       1  UNL1        0.2098
@<TRIPOS>BOND
     1     1     8    1
     2     1    25    1
     3     2     3   ar
     4     2     6   ar
     5     2     8    1
     6     3     7   ar
     7     3     9    1
     8     4     5   ar
     9     4     6   ar
    10     4    10    1
    11     5     7   ar
    12     5    11    1
    13     6    12    1
    14     7    13    1
    15     8    14    1
    16     8    15    1
    17     9    16    1
    18     9    17    1
    19     9    18    1
    20    10    19    1
    21    10    20    1
    22    10    21    1
    23    11    22    1
    24    11    23    1
    25    11    24    1
