@<TRIPOS>MOLECULE
IMPHY003013
 53 56 0 0 0
SMALL
GASTEIGER

@<TRIPOS>ATOM
      1 O           5.1350   -2.0357    0.0000 O.3     1  UNL1       -0.3313
      2 O           6.8671   -2.0357    0.0000 O.3     1  UNL1       -0.4572
      3 O           5.1350   -5.0357    0.0000 O.3     1  UNL1       -0.3864
      4 O           3.4030   -4.0357    0.0000 O.3     1  UNL1       -0.3865
      5 O           6.8671   -4.0357    0.0000 O.3     1  UNL1       -0.3829
      6 O           2.5369   -2.5357    0.0000 O.3     1  UNL1       -0.3924
      7 O           5.1350    1.9643    0.0000 O.3     1  UNL1       -0.4830
      8 O           8.5991   -1.0357    0.0000 O.3     1  UNL1       -0.5033
      9 O           2.5369    0.4643    0.0000 O.2     1  UNL1       -0.2918
     10 O           3.3909    5.0336    0.0000 O.3     1  UNL1       -0.5066
     11 C           5.1350   -4.0357    0.0000 C.3     1  UNL1        0.1152
     12 C           4.2690   -3.5357    0.0000 C.3     1  UNL1        0.1120
     13 C           6.0010   -3.5357    0.0000 C.3     1  UNL1        0.1454
     14 C           4.2690   -2.5357    0.0000 C.3     1  UNL1        0.1140
     15 C           6.0010   -2.5357    0.0000 C.3     1  UNL1        0.2310
     16 C           3.4030   -2.0357    0.0000 C.3     1  UNL1        0.0731
     17 C           6.8671   -1.0357    0.0000 C.ar    1  UNL1        0.1655
     18 C           5.1350    0.9643    0.0000 C.3     1  UNL1        0.1323
     19 C           6.0010    0.4643    0.0000 C.ar    1  UNL1       -0.0033
     20 C           4.2690    0.4643    0.0000 C.3     1  UNL1        0.0519
     21 C           6.0010   -0.5357    0.0000 C.ar    1  UNL1       -0.0095
     22 C           7.7331   -0.5357    0.0000 C.ar    1  UNL1        0.1586
     23 C           6.8671    0.9643    0.0000 C.ar    1  UNL1       -0.0514
     24 C           3.4030    0.9643    0.0000 C.2     1  UNL1        0.1705
     25 C           3.4030    1.9643    0.0000 C.ar    1  UNL1        0.0594
     26 C           4.2690    2.4643    0.0000 C.ar    1  UNL1        0.1353
     27 C           7.7331    0.4643    0.0000 C.ar    1  UNL1       -0.0161
     28 C           2.4930    2.4712    0.0000 C.ar    1  UNL1       -0.0443
     29 C           4.2850    3.5058    0.0000 C.ar    1  UNL1        0.0223
     30 C           3.3870    4.0336    0.0000 C.ar    1  UNL1        0.1204
     31 C           2.4849    3.5128    0.0000 C.ar    1  UNL1       -0.0193
     32 H           5.6720   -4.3457    0.0000 H       1  UNL1        0.0648
     33 H           4.2690   -4.1557    0.0000 H       1  UNL1        0.0647
     34 H           6.5380   -3.2257    0.0000 H       1  UNL1        0.0683
     35 H           4.2690   -1.9157    0.0000 H       1  UNL1        0.0647
     36 H           6.0010   -1.9157    0.0000 H       1  UNL1        0.1084
     37 H           3.8015   -1.5607    0.0000 H       1  UNL1        0.0584
     38 H           3.0044   -1.5607    0.0000 H       1  UNL1        0.0584
     39 H           4.5981   -5.3457    0.0000 H       1  UNL1        0.2100
     40 H           3.4030   -4.6557    0.0000 H       1  UNL1        0.2100
     41 H           6.8671   -4.6557    0.0000 H       1  UNL1        0.2102
     42 H           5.1350    0.3443    0.0000 H       1  UNL1        0.0789
     43 H           3.8705   -0.0106    0.0000 H       1  UNL1        0.0385
     44 H           4.6675   -0.0106    0.0000 H       1  UNL1        0.0385
     45 H           5.4641   -0.8457    0.0000 H       1  UNL1        0.0659
     46 H           2.0000   -2.2257    0.0000 H       1  UNL1        0.2095
     47 H           6.8671    1.5843    0.0000 H       1  UNL1        0.0623
     48 H           8.2700    0.7743    0.0000 H       1  UNL1        0.0655
     49 H           1.9596    2.1550    0.0000 H       1  UNL1        0.0627
     50 H           4.8255    3.8096    0.0000 H       1  UNL1        0.0691
     51 H           1.9468    3.8207    0.0000 H       1  UNL1        0.0654
     52 H           9.1360   -0.7257    0.0000 H       1  UNL1        0.2923
     53 H           2.8551    5.3457    0.0000 H       1  UNL1        0.2921
@<TRIPOS>BOND
     1     1    14    1
     2     1    15    1
     3    15     2    1
     4     2    17    1
     5    11     3    1
     6     3    39    1
     7    12     4    1
     8     4    40    1
     9    13     5    1
    10     5    41    1
    11     6    16    1
    12     6    46    1
    13     7    18    1
    14     7    26    1
    15     8    22    1
    16     8    52    1
    17     9    24    2
    18    10    30    1
    19    10    53    1
    20    11    12    1
    21    11    13    1
    22    11    32    1
    23    12    14    1
    24    12    33    1
    25    13    15    1
    26    13    34    1
    27    14    16    1
    28    14    35    1
    29    15    36    1
    30    16    37    1
    31    16    38    1
    32    17    21   ar
    33    17    22   ar
    34    18    19    1
    35    18    20    1
    36    18    42    1
    37    19    21   ar
    38    19    23   ar
    39    20    24    1
    40    20    43    1
    41    20    44    1
    42    21    45    1
    43    22    27   ar
    44    23    27   ar
    45    23    47    1
    46    24    25    1
    47    25    26   ar
    48    25    28   ar
    49    26    29   ar
    50    27    48    1
    51    28    31   ar
    52    28    49    1
    53    29    30   ar
    54    29    50    1
    55    30    31   ar
    56    31    51    1
