@<TRIPOS>MOLECULE
IMPHY000423
 32 35 0 0 0
SMALL
GASTEIGER

@<TRIPOS>ATOM
      1 O           3.4501   -1.3511    0.0000 O.3     1  UNL1       -0.4485
      2 O           7.0647   -0.0080    0.0000 O.3     1  UNL1       -0.3784
      3 O           2.0379   -2.4287    0.0000 O.2     1  UNL1       -0.2456
      4 N           4.7096    1.0424    0.0000 N.3     1  UNL1       -0.2863
      5 C           4.4870    0.0675    0.0000 C.3     1  UNL1        0.0576
      6 C           3.5861   -0.3664    0.0000 C.3     1  UNL1        0.1560
      7 C           4.0861    1.8243    0.0000 C.3     1  UNL1        0.0335
      8 C           3.4792    0.8104    0.0000 C.3     1  UNL1        0.0122
      9 C           5.3417   -0.4401    0.0000 C.3     1  UNL1       -0.0057
     10 C           5.6999    1.1290    0.0000 C.3     1  UNL1        0.0262
     11 C           6.0898    0.2146    0.0000 C.3     1  UNL1        0.0726
     12 C           2.6851    0.0675    0.0000 C.2     1  UNL1        0.0039
     13 C           3.0861    1.8243    0.0000 C.2     1  UNL1       -0.0665
     14 C           2.4626    1.0424    0.0000 C.2     1  UNL1       -0.0570
     15 C           2.0000   -0.6528    0.0000 C.2     1  UNL1        0.0295
     16 C           2.4718   -1.5278    0.0000 C.2     1  UNL1        0.3332
     17 C           7.7449    0.7251    0.0000 C.3     1  UNL1        0.0369
     18 H           4.2979   -0.7612    0.0000 H       1  UNL1        0.0506
     19 H           4.2752    2.6530    0.0000 H       1  UNL1        0.0508
     20 H           3.0714    1.2774    0.0000 H       1  UNL1        0.0326
     21 H           2.9092    0.5666    0.0000 H       1  UNL1        0.0326
     22 H           4.9708   -0.9370    0.0000 H       1  UNL1        0.0307
     23 H           5.7968   -0.8612    0.0000 H       1  UNL1        0.0307
     24 H           6.2926    1.3109    0.0000 H       1  UNL1        0.0452
     25 H           5.5813    1.7375    0.0000 H       1  UNL1        0.0452
     26 H           6.2415   -0.3866    0.0000 H       1  UNL1        0.0609
     27 H           2.8171    2.3829    0.0000 H       1  UNL1        0.0588
     28 H           1.8581    1.1804    0.0000 H       1  UNL1        0.0619
     29 H           1.3855   -0.5706    0.0000 H       1  UNL1        0.0693
     30 H           8.1994    0.3034    0.0000 H       1  UNL1        0.0524
     31 H           8.1666    1.1796    0.0000 H       1  UNL1        0.0524
     32 H           7.2904    1.1468    0.0000 H       1  UNL1        0.0524
@<TRIPOS>BOND
     1     6     1    1
     2     1    16    1
     3     2    11    1
     4     2    17    1
     5     3    16    2
     6     4     5    1
     7     4     7    1
     8     4    10    1
     9     5     6    1
    10     5     9    1
    11     5    18    1
    12     6     8    1
    13     6    12    1
    14     7     8    1
    15     7    13    1
    16     7    19    1
    17     8    20    1
    18     8    21    1
    19     9    11    1
    20     9    22    1
    21     9    23    1
    22    10    11    1
    23    10    24    1
    24    10    25    1
    25    11    26    1
    26    12    14    1
    27    12    15    2
    28    13    14    2
    29    13    27    1
    30    14    28    1
    31    15    16    1
    32    15    29    1
    33    17    30    1
    34    17    31    1
    35    17    32    1
