@<TRIPOS>MOLECULE
IMPHY007317
 20 20 0 0 0
SMALL
GASTEIGER

@<TRIPOS>ATOM
      1 O           2.8660   -2.5950    0.0000 O.3     1  UNL1       -0.5068
      2 C           2.8660    0.4050    0.0000 C.ar    1  UNL1       -0.0434
      3 C           2.8660    1.4050    0.0000 C.3     1  UNL1       -0.0097
      4 C           2.0000   -0.0950    0.0000 C.ar    1  UNL1       -0.0548
      5 C           3.7320   -0.0950    0.0000 C.ar    1  UNL1       -0.0548
      6 C           2.0000   -1.0950    0.0000 C.ar    1  UNL1       -0.0199
      7 C           3.7320   -1.0950    0.0000 C.ar    1  UNL1       -0.0199
      8 C           2.8660   -1.5950    0.0000 C.ar    1  UNL1        0.1169
      9 C           3.7320    1.9050    0.0000 C.2     1  UNL1       -0.0868
     10 C           3.7320    2.9050    0.0000 C.2     1  UNL1       -0.1023
     11 H           2.6540    1.9876    0.0000 H       1  UNL1        0.0355
     12 H           2.2554    1.2973    0.0000 H       1  UNL1        0.0355
     13 H           1.4631    0.2150    0.0000 H       1  UNL1        0.0622
     14 H           4.2690    0.2150    0.0000 H       1  UNL1        0.0622
     15 H           1.4631   -1.4050    0.0000 H       1  UNL1        0.0654
     16 H           4.2690   -1.4050    0.0000 H       1  UNL1        0.0654
     17 H           4.2690    1.5950    0.0000 H       1  UNL1        0.0570
     18 H           4.2690    3.2150    0.0000 H       1  UNL1        0.0532
     19 H           3.1951    3.2150    0.0000 H       1  UNL1        0.0532
     20 H           2.3291   -2.9050    0.0000 H       1  UNL1        0.2921
@<TRIPOS>BOND
     1     1     8    1
     2     1    20    1
     3     2     3    1
     4     2     4   ar
     5     2     5   ar
     6     3     9    1
     7     3    11    1
     8     3    12    1
     9     4     6   ar
    10     4    13    1
    11     5     7   ar
    12     5    14    1
    13     6     8   ar
    14     6    15    1
    15     7     8   ar
    16     7    16    1
    17     9    10    2
    18     9    17    1
    19    10    18    1
    20    10    19    1
