@<TRIPOS>MOLECULE
IMPHY010653
 19 20 0 0 0
SMALL
GASTEIGER

@<TRIPOS>ATOM
      1 C           1.8738   -4.2574    0.0000 C.3     1  UNL1       -0.0010
      2 C           2.9127   -3.4225    0.0000 C.3     1  UNL1        0.0120
      3 C           2.9127   -2.0905    0.0000 C.3     1  UNL1        0.0102
      4 C           1.8738   -1.2683    0.0000 C.3     1  UNL1        0.1233
      5 C           0.5800   -1.5615    0.0000 C.3     1  UNL1        0.0301
      6 C           0.0000   -2.7661    0.0000 C.3     1  UNL1        0.0025
      7 C           0.5800   -3.9643    0.0000 C.3     1  UNL1       -0.0001
      8 C           4.0662   -4.0917    0.0000 C.3     1  UNL1        0.1661
      9 C           5.2198   -3.4225    0.0000 C.2     1  UNL1       -0.0187
     10 C           5.2198   -2.0905    0.0000 C.2     1  UNL1       -0.0325
     11 C           4.0662   -1.4340    0.0000 C.3     1  UNL1        0.0237
     12 C           2.7724   -5.2326    0.0000 C.3     1  UNL1       -0.0002
     13 C           1.4850   -5.5258    0.0000 C.3     1  UNL1       -0.0002
     14 O           1.4850    0.0000    0.0000 O.3     1  UNL1       -0.2260
     15 C           2.7724   -0.2932    0.0000 C.3     1  UNL1        0.0326
     16 O           4.0662   -5.4238    0.0000 O.3     1  UNL1       -0.2190
     17 C           6.3734   -4.0917    0.0000 C.3     1  UNL1        0.0286
     18 H           2.9127   -4.7546    0.0000 H       1  UNL1        0.0344
     19 H           2.9127   -0.7584    0.0000 H       1  UNL1        0.0343
@<TRIPOS>BOND
     1     1     2    1
     2     1     7    1
     3     1    12    1
     4     1    13    1
     5     2     3    1
     6     2     8    1
     7     2    18    1
     8     3    11    1
     9     3    19    1
    10     3     4    1
    11     4     5    1
    12     4    15    1
    13     4    14    1
    14     5     6    1
    15     6     7    1
    16     8     9    1
    17     8    16    1
    18     9    10    2
    19     9    17    1
    20    10    11    1
