@<TRIPOS>MOLECULE
IMPHY015156
 30 31 0 0 0
SMALL
GASTEIGER

@<TRIPOS>ATOM
      1 S           4.4936    3.6433    0.0000 S.2     1  UNL1       -0.0944
      2 O           2.0000   -0.8512    0.0000 O.co2   1  UNL1       -0.5760
      3 O           2.8660    0.6488    0.0000 O.2     1  UNL1        0.0415
      4 O           5.4641   -3.8512    0.0000 O.co2   1  UNL1       -0.5760
      5 O           3.7320   -3.8512    0.0000 O.2     1  UNL1        0.0414
      6 N           4.5981    0.6488    0.0000 N.pl3   1  UNL1       -0.2303
      7 N           2.8660   -0.3512    0.0000 N.pl3   1  UNL1        0.0818
      8 N           5.4641    1.1488    0.0000 N.2     1  UNL1       -0.1723
      9 N           4.5981   -3.3512    0.0000 N.pl3   1  UNL1        0.0798
     10 C           4.5981   -0.3512    0.0000 C.ar    1  UNL1        0.1258
     11 C           3.7320   -0.8512    0.0000 C.ar    1  UNL1        0.3018
     12 C           4.5981   -2.3512    0.0000 C.ar    1  UNL1        0.2797
     13 C           3.7320   -1.8512    0.0000 C.ar    1  UNL1        0.0946
     14 C           5.4641   -0.8512    0.0000 C.ar    1  UNL1       -0.0261
     15 C           5.4641   -1.8512    0.0000 C.ar    1  UNL1        0.0178
     16 C           4.5981    2.6488    0.0000 C.ar    1  UNL1        0.0475
     17 C           5.4641    2.1488    0.0000 C.2     1  UNL1        0.1448
     18 C           3.6845    2.2420    0.0000 C.ar    1  UNL1       -0.0448
     19 C           3.0154    2.9852    0.0000 C.ar    1  UNL1       -0.0541
     20 C           3.5154    3.8512    0.0000 C.ar    1  UNL1       -0.0237
     21 C           6.3301    2.6488    0.0000 C.1     1  UNL1       -0.0472
     22 C           7.1962    3.1488    0.0000 C.1     1  UNL1       -0.1123
     23 H           3.1951   -2.1612    0.0000 H       1  UNL1        0.0755
     24 H           6.0010   -0.5412    0.0000 H       1  UNL1        0.0641
     25 H           6.0010   -2.1612    0.0000 H       1  UNL1        0.0686
     26 H           4.0611    0.9588    0.0000 H       1  UNL1        0.1746
     27 H           3.5556    1.6356    0.0000 H       1  UNL1        0.0630
     28 H           2.3988    2.9204    0.0000 H       1  UNL1        0.0623
     29 H           3.2632    4.4176    0.0000 H       1  UNL1        0.0693
     30 H           7.7331    3.4588    0.0000 H       1  UNL1        0.1232
@<TRIPOS>UNITY_ATOM_ATTR
2 1
charge -1
4 1
charge -1
7 1
charge 1
9 1
charge 1
@<TRIPOS>BOND
     1     1    16   ar
     2     1    20   ar
     3     2     7    1
     4     3     7    2
     5     4     9    1
     6     5     9    2
     7     6     8    1
     8     6    10    1
     9     6    26    1
    10     7    11    1
    11     8    17    2
    12     9    12    1
    13    10    11   ar
    14    10    14   ar
    15    11    13   ar
    16    12    13   ar
    17    12    15   ar
    18    13    23    1
    19    14    15   ar
    20    14    24    1
    21    15    25    1
    22    16    17    1
    23    16    18   ar
    24    17    21    1
    25    18    19   ar
    26    18    27    1
    27    19    20   ar
    28    19    28    1
    29    20    29    1
    30    21    22    3
    31    22    30    1
