@<TRIPOS>MOLECULE
IMPHY000076
 44 47 0 0 0
SMALL
GASTEIGER

@<TRIPOS>ATOM
      1 O           3.7782    1.4936    0.0000 O.3     1  UNL1       -0.5029
      2 O           5.5442    2.5314    0.0000 O.3     1  UNL1       -0.4914
      3 O           2.9176    0.9968    0.0000 O.3     1  UNL1       -0.4945
      4 N           6.3903   -2.0348    0.0000 N.3     1  UNL1       -0.2978
      5 C           5.5321   -1.5378    0.0000 C.3     1  UNL1        0.0403
      6 C           5.5321   -0.5378    0.0000 C.ar    1  UNL1       -0.0152
      7 C           4.6660   -2.0378    0.0000 C.3     1  UNL1       -0.0072
      8 C           6.4421   -0.0310    0.0000 C.ar    1  UNL1       -0.0372
      9 C           7.2558   -1.5506    0.0000 C.3     1  UNL1        0.0032
     10 C           4.6660   -0.0378    0.0000 C.ar    1  UNL1        0.0359
     11 C           7.2814   -0.5592    0.0000 C.3     1  UNL1       -0.0144
     12 C           3.8000   -1.5378    0.0000 C.ar    1  UNL1       -0.0342
     13 C           3.8000   -0.5378    0.0000 C.ar    1  UNL1        0.0309
     14 C           6.4501    1.0106    0.0000 C.ar    1  UNL1       -0.0127
     15 C           4.6500    1.0037    0.0000 C.ar    1  UNL1        0.1668
     16 C           6.3829   -3.0348    0.0000 C.3     1  UNL1       -0.0122
     17 C           5.5480    1.5314    0.0000 C.ar    1  UNL1        0.1622
     18 C           2.9061   -0.0032    0.0000 C.ar    1  UNL1        0.1282
     19 C           2.9061   -2.0725    0.0000 C.ar    1  UNL1       -0.0577
     20 C           2.0000   -0.5170    0.0000 C.ar    1  UNL1       -0.0193
     21 C           2.0000   -1.5587    0.0000 C.ar    1  UNL1       -0.0580
     22 C           6.4082    3.0348    0.0000 C.3     1  UNL1        0.0790
     23 C           2.0574    1.5067    0.0000 C.3     1  UNL1        0.0788
     24 H           5.5315   -2.3878    0.0000 H       1  UNL1        0.0516
     25 H           4.2675   -2.5128    0.0000 H       1  UNL1        0.0332
     26 H           5.0646   -2.5128    0.0000 H       1  UNL1        0.0332
     27 H           7.4575   -2.1369    0.0000 H       1  UNL1        0.0430
     28 H           7.8685   -1.4562    0.0000 H       1  UNL1        0.0430
     29 H           7.8885   -0.6851    0.0000 H       1  UNL1        0.0326
     30 H           7.5131    0.0158    0.0000 H       1  UNL1        0.0326
     31 H           6.9882    1.3185    0.0000 H       1  UNL1        0.0658
     32 H           5.7629   -3.0302    0.0000 H       1  UNL1        0.0391
     33 H           6.3783   -3.6547    0.0000 H       1  UNL1        0.0391
     34 H           7.0029   -3.0393    0.0000 H       1  UNL1        0.0391
     35 H           2.9132   -2.6925    0.0000 H       1  UNL1        0.0621
     36 H           1.4643   -0.2050    0.0000 H       1  UNL1        0.0654
     37 H           1.4643   -1.8707    0.0000 H       1  UNL1        0.0619
     38 H           3.7711    2.1136    0.0000 H       1  UNL1        0.2923
     39 H           6.7203    2.4990    0.0000 H       1  UNL1        0.0660
     40 H           6.9440    3.3468    0.0000 H       1  UNL1        0.0660
     41 H           6.0962    3.5705    0.0000 H       1  UNL1        0.0660
     42 H           2.3736    2.0400    0.0000 H       1  UNL1        0.0660
     43 H           1.5241    1.8229    0.0000 H       1  UNL1        0.0660
     44 H           1.7413    0.9734    0.0000 H       1  UNL1        0.0660
@<TRIPOS>BOND
     1     1    15    1
     2     1    38    1
     3     2    17    1
     4     2    22    1
     5     3    18    1
     6     3    23    1
     7     4     5    1
     8     4     9    1
     9     4    16    1
    10     5     6    1
    11     5     7    1
    12     5    24    1
    13     6     8   ar
    14     6    10   ar
    15     7    12    1
    16     7    25    1
    17     7    26    1
    18     8    11    1
    19     8    14   ar
    20     9    11    1
    21     9    27    1
    22     9    28    1
    23    10    13    1
    24    10    15   ar
    25    11    29    1
    26    11    30    1
    27    12    13   ar
    28    12    19   ar
    29    13    18   ar
    30    14    17   ar
    31    14    31    1
    32    15    17   ar
    33    16    32    1
    34    16    33    1
    35    16    34    1
    36    18    20   ar
    37    19    21   ar
    38    19    35    1
    39    20    21   ar
    40    20    36    1
    41    21    37    1
    42    22    39    1
    43    22    40    1
    44    22    41    1
    45    23    42    1
    46    23    43    1
    47    23    44    1
