@<TRIPOS>MOLECULE
IMPHY005888
 34 37 0 0 0
SMALL
GASTEIGER

@<TRIPOS>ATOM
      1 O           2.8660    0.5812    0.0000 O.2     1  UNL1       -0.4178
      2 O           6.3981   -0.4396    0.0000 O.2     1  UNL1       -0.4178
      3 O           2.8611    2.5664    0.0000 O.3     1  UNL1       -0.4885
      4 O           4.5632   -3.4178    0.0000 O.3     1  UNL1       -0.4913
      5 O           6.3038   -2.4719    0.0000 O.3     1  UNL1       -0.5009
      6 O           4.5632    3.5801    0.0000 O.3     1  UNL1       -0.5032
      7 O           2.0000   -0.9188    0.0000 O.2     1  UNL1       -0.2445
      8 O           7.2622    1.1053    0.0000 O.2     1  UNL1       -0.2445
      9 C           4.5981    0.5812    0.0000 C.ar    1  UNL1        0.0468
     10 C           4.5981   -0.4188    0.0000 C.ar    1  UNL1        0.0468
     11 C           3.7320   -0.9188    0.0000 C.ar    1  UNL1        0.0744
     12 C           5.4920    1.1158    0.0000 C.ar    1  UNL1        0.0744
     13 C           3.7320    1.0812    0.0000 C.ar    1  UNL1        0.1856
     14 C           5.4920   -0.9535    0.0000 C.ar    1  UNL1        0.1854
     15 C           3.7308    2.0729    0.0000 C.ar    1  UNL1        0.2047
     16 C           5.4542   -1.9445    0.0000 C.ar    1  UNL1        0.2024
     17 C           3.7308   -1.9105    0.0000 C.ar    1  UNL1       -0.0015
     18 C           5.4542    2.1068    0.0000 C.ar    1  UNL1       -0.0017
     19 C           2.8660   -0.4188    0.0000 C.ar    1  UNL1        0.3454
     20 C           6.3981    0.6020    0.0000 C.ar    1  UNL1        0.3454
     21 C           4.5828   -2.4180    0.0000 C.ar    1  UNL1        0.1658
     22 C           4.5828    2.5803    0.0000 C.ar    1  UNL1        0.1630
     23 C           2.8537    3.5664    0.0000 C.3     1  UNL1        0.0791
     24 C           3.6875   -3.9006    0.0000 C.3     1  UNL1        0.0790
     25 H           3.1916   -2.2165    0.0000 H       1  UNL1        0.0664
     26 H           5.9810    2.4338    0.0000 H       1  UNL1        0.0664
     27 H           6.2840   -3.0916    0.0000 H       1  UNL1        0.2924
     28 H           5.0939    3.9006    0.0000 H       1  UNL1        0.2923
     29 H           3.4737    3.5710    0.0000 H       1  UNL1        0.0660
     30 H           2.8491    4.1864    0.0000 H       1  UNL1        0.0660
     31 H           2.2337    3.5618    0.0000 H       1  UNL1        0.0660
     32 H           3.3881   -3.3577    0.0000 H       1  UNL1        0.0660
     33 H           3.1445   -4.2000    0.0000 H       1  UNL1        0.0660
     34 H           3.9868   -4.4436    0.0000 H       1  UNL1        0.0660
@<TRIPOS>BOND
     1     1    13   ar
     2     1    19   ar
     3     2    14   ar
     4     2    20   ar
     5     3    15    1
     6     3    23    1
     7     4    21    1
     8     4    24    1
     9     5    16    1
    10     5    27    1
    11     6    22    1
    12     6    28    1
    13     7    19    2
    14     8    20    2
    15     9    10   ar
    16     9    12   ar
    17     9    13   ar
    18    10    11   ar
    19    10    14   ar
    20    11    17   ar
    21    11    19   ar
    22    12    18   ar
    23    12    20   ar
    24    13    15   ar
    25    14    16   ar
    26    15    22   ar
    27    16    21   ar
    28    17    21   ar
    29    17    25    1
    30    18    22   ar
    31    18    26    1
    32    23    29    1
    33    23    30    1
    34    23    31    1
    35    24    32    1
    36    24    33    1
    37    24    34    1
