@<TRIPOS>MOLECULE
IMPHY012752
 56 57 0 0 0
SMALL
GASTEIGER

@<TRIPOS>ATOM
      1 O           5.4641    1.2500    0.0000 O.3     1  UNL1       -0.4825
      2 O           3.7320    0.2500    0.0000 O.3     1  UNL1       -0.3835
      3 O           6.3301   -3.2500    0.0000 O.3     1  UNL1       -0.4913
      4 O           2.8660   -3.2500    0.0000 O.3     1  UNL1       -0.4913
      5 O           4.5981   -4.2500    0.0000 O.3     1  UNL1       -0.4885
      6 O           5.4641    3.2500    0.0000 O.3     1  UNL1       -0.4914
      7 C           4.5981   -0.2500    0.0000 C.3     1  UNL1        0.1168
      8 C           5.4641    0.2500    0.0000 C.3     1  UNL1        0.1274
      9 C           4.5981   -1.2500    0.0000 C.ar    1  UNL1       -0.0085
     10 C           6.3301   -0.2500    0.0000 C.3     1  UNL1       -0.0250
     11 C           3.7320   -1.7500    0.0000 C.ar    1  UNL1       -0.0103
     12 C           5.4641   -1.7500    0.0000 C.ar    1  UNL1       -0.0103
     13 C           5.4641   -2.7500    0.0000 C.ar    1  UNL1        0.1655
     14 C           3.7320   -2.7500    0.0000 C.ar    1  UNL1        0.1655
     15 C           6.3301    1.7500    0.0000 C.ar    1  UNL1        0.1625
     16 C           4.5981   -3.2500    0.0000 C.ar    1  UNL1        0.2035
     17 C           6.3301    2.7500    0.0000 C.ar    1  UNL1        0.1621
     18 C           7.1962    1.2500    0.0000 C.ar    1  UNL1       -0.0157
     19 C           7.1962    3.2500    0.0000 C.ar    1  UNL1       -0.0092
     20 C           8.0622    2.7500    0.0000 C.ar    1  UNL1       -0.0216
     21 C           8.0622    1.7500    0.0000 C.ar    1  UNL1       -0.0509
     22 C           8.9282    3.2500    0.0000 C.2     1  UNL1       -0.0587
     23 C           7.1962   -2.7500    0.0000 C.3     1  UNL1        0.0790
     24 C           2.0000   -2.7500    0.0000 C.3     1  UNL1        0.0790
     25 C           3.7320   -4.7500    0.0000 C.3     1  UNL1        0.0791
     26 C           5.4641    4.2500    0.0000 C.3     1  UNL1        0.0790
     27 C           8.9282    4.2500    0.0000 C.2     1  UNL1       -0.0865
     28 C           9.7942    4.7500    0.0000 C.3     1  UNL1       -0.0465
     29 H           4.5981    0.3700    0.0000 H       1  UNL1        0.0681
     30 H           6.0010    0.5600    0.0000 H       1  UNL1        0.0760
     31 H           6.0201   -0.7869    0.0000 H       1  UNL1        0.0266
     32 H           6.8671   -0.5600    0.0000 H       1  UNL1        0.0266
     33 H           6.6401    0.2869    0.0000 H       1  UNL1        0.0266
     34 H           3.1951   -1.4400    0.0000 H       1  UNL1        0.0659
     35 H           6.0010   -1.4400    0.0000 H       1  UNL1        0.0659
     36 H           3.7320    0.8700    0.0000 H       1  UNL1        0.2104
     37 H           7.1962    0.6300    0.0000 H       1  UNL1        0.0655
     38 H           7.1962    3.8700    0.0000 H       1  UNL1        0.0661
     39 H           8.5991    1.4400    0.0000 H       1  UNL1        0.0625
     40 H           9.4651    2.9400    0.0000 H       1  UNL1        0.0620
     41 H           7.5062   -3.2869    0.0000 H       1  UNL1        0.0660
     42 H           7.7331   -2.4400    0.0000 H       1  UNL1        0.0660
     43 H           6.8862   -2.2131    0.0000 H       1  UNL1        0.0660
     44 H           2.3100   -2.2131    0.0000 H       1  UNL1        0.0660
     45 H           1.4631   -2.4400    0.0000 H       1  UNL1        0.0660
     46 H           1.6900   -3.2869    0.0000 H       1  UNL1        0.0660
     47 H           3.4220   -4.2131    0.0000 H       1  UNL1        0.0660
     48 H           3.1951   -5.0600    0.0000 H       1  UNL1        0.0660
     49 H           4.0420   -5.2869    0.0000 H       1  UNL1        0.0660
     50 H           6.0841    4.2500    0.0000 H       1  UNL1        0.0660
     51 H           5.4641    4.8700    0.0000 H       1  UNL1        0.0660
     52 H           4.8441    4.2500    0.0000 H       1  UNL1        0.0660
     53 H           8.3913    4.5600    0.0000 H       1  UNL1        0.0569
     54 H          10.1042    4.2131    0.0000 H       1  UNL1        0.0272
     55 H          10.3312    5.0600    0.0000 H       1  UNL1        0.0272
     56 H           9.4842    5.2869    0.0000 H       1  UNL1        0.0272
@<TRIPOS>BOND
     1     8     1    1
     2     1    15    1
     3     7     2    1
     4     2    36    1
     5     3    13    1
     6     3    23    1
     7     4    14    1
     8     4    24    1
     9     5    16    1
    10     5    25    1
    11     6    17    1
    12     6    26    1
    13     7     8    1
    14     7     9    1
    15     7    29    1
    16     8    10    1
    17     8    30    1
    18     9    11   ar
    19     9    12   ar
    20    10    31    1
    21    10    32    1
    22    10    33    1
    23    11    14   ar
    24    11    34    1
    25    12    13   ar
    26    12    35    1
    27    13    16   ar
    28    14    16   ar
    29    15    17   ar
    30    15    18   ar
    31    17    19   ar
    32    18    21   ar
    33    18    37    1
    34    19    20   ar
    35    19    38    1
    36    20    21   ar
    37    20    22    1
    38    21    39    1
    39    22    27    2
    40    22    40    1
    41    23    41    1
    42    23    42    1
    43    23    43    1
    44    24    44    1
    45    24    45    1
    46    24    46    1
    47    25    47    1
    48    25    48    1
    49    25    49    1
    50    26    50    1
    51    26    51    1
    52    26    52    1
    53    27    28    1
    54    27    53    1
    55    28    54    1
    56    28    55    1
    57    28    56    1
