@<TRIPOS>MOLECULE
IMPHY017444
 27 29 0 0 0
SMALL
GASTEIGER

@<TRIPOS>ATOM
      1 O           4.9355    1.6744    0.0000 O.3     1  UNL1       -0.3544
      2 O           2.3563   -1.5014    0.0000 O.2     1  UNL1       -0.4993
      3 C           5.6721    0.6917    0.0000 C.3     1  UNL1        0.0932
      4 C           3.6986    0.0735    0.0000 C.3     1  UNL1        0.0218
      5 C           5.4133   -0.2742    0.0000 C.3     1  UNL1        0.1104
      6 C           4.0406   -0.8662    0.0000 C.2     1  UNL1        0.0058
      7 C           2.6757    0.2702    0.0000 C.3     1  UNL1       -0.0090
      8 C           7.0711    0.1829    0.0000 C.2     1  UNL1       -0.0532
      9 C           6.8122   -0.7830    0.0000 C.2     1  UNL1       -0.0499
     10 C           5.9309    1.6577    0.0000 C.3     1  UNL1       -0.0316
     11 C           5.1545   -1.2401    0.0000 C.3     1  UNL1       -0.0281
     12 C           2.0000   -0.5226    0.0000 C.3     1  UNL1        0.0894
     13 C           3.3834   -1.6744    0.0000 C.2     1  UNL1        0.0871
     14 H           3.6634    0.6925    0.0000 H       1  UNL1        0.0380
     15 H           2.8952    0.8500    0.0000 H       1  UNL1        0.0305
     16 H           2.1420    0.5857    0.0000 H       1  UNL1        0.0305
     17 H           7.6210    0.4693    0.0000 H       1  UNL1        0.0598
     18 H           7.0986   -1.3329    0.0000 H       1  UNL1        0.0601
     19 H           6.5298    1.4972    0.0000 H       1  UNL1        0.0261
     20 H           6.0914    2.2566    0.0000 H       1  UNL1        0.0261
     21 H           5.3321    1.8181    0.0000 H       1  UNL1        0.0261
     22 H           4.5556   -1.0796    0.0000 H       1  UNL1        0.0264
     23 H           4.9940   -1.8390    0.0000 H       1  UNL1        0.0264
     24 H           5.7534   -1.4006    0.0000 H       1  UNL1        0.0264
     25 H           1.6039   -0.0456    0.0000 H       1  UNL1        0.0696
     26 H           1.4623   -0.8312    0.0000 H       1  UNL1        0.0696
     27 H           3.6022   -2.2545    0.0000 H       1  UNL1        0.1024
@<TRIPOS>BOND
     1     1     3    1
     2     1     5    1
     3     2    12    1
     4     2    13    1
     5     3     4    1
     6     3     8    1
     7     3    10    1
     8     4     6    1
     9     4     7    1
    10     4    14    1
    11     5     6    1
    12     5     9    1
    13     5    11    1
    14     6    13    2
    15     7    12    1
    16     7    15    1
    17     7    16    1
    18     8     9    2
    19     8    17    1
    20     9    18    1
    21    10    19    1
    22    10    20    1
    23    10    21    1
    24    11    22    1
    25    11    23    1
    26    11    24    1
    27    12    25    1
    28    12    26    1
    29    13    27    1
