@<TRIPOS>MOLECULE
IMPHY003213
 42 45 0 0 0
SMALL
GASTEIGER

@<TRIPOS>ATOM
      1 O           4.6660   -1.0919    0.0000 O.3     1  UNL1       -0.5054
      2 O           7.2641    1.4081    0.0000 O.2     1  UNL1       -0.2866
      3 O           9.0125   -2.6265    0.0000 O.3     1  UNL1       -0.5060
      4 O           7.2641   -2.5919    0.0000 O.2     1  UNL1       -0.2871
      5 O           2.9176   -1.1265    0.0000 O.2     1  UNL1       -0.2871
      6 O           2.9176    2.9427    0.0000 O.2     1  UNL1       -0.2873
      7 C           5.5321    0.4081    0.0000 C.ar    1  UNL1        0.0310
      8 C           6.3981   -0.0919    0.0000 C.2     1  UNL1        0.0368
      9 C           5.5321    1.4081    0.0000 C.ar    1  UNL1       -0.0384
     10 C           8.1301   -0.0919    0.0000 C.ar    1  UNL1        0.0368
     11 C           4.6660   -0.0919    0.0000 C.ar    1  UNL1        0.1364
     12 C           3.8000    0.4081    0.0000 C.ar    1  UNL1        0.0744
     13 C           8.1301   -1.0919    0.0000 C.ar    1  UNL1        0.0738
     14 C           3.8000    1.4081    0.0000 C.ar    1  UNL1        0.0362
     15 C           7.2641    0.4081    0.0000 C.2     1  UNL1        0.1948
     16 C           4.6660    1.9081    0.0000 C.ar    1  UNL1       -0.0465
     17 C           6.3981   -1.0919    0.0000 C.2     1  UNL1       -0.0027
     18 C           7.2641   -1.5919    0.0000 C.2     1  UNL1        0.1909
     19 C           9.0241    0.4428    0.0000 C.ar    1  UNL1       -0.0471
     20 C           9.0241   -1.6266    0.0000 C.ar    1  UNL1        0.1286
     21 C           9.9301   -0.0711    0.0000 C.ar    1  UNL1       -0.0463
     22 C           6.3981    1.9081    0.0000 C.3     1  UNL1       -0.0390
     23 C           2.9061   -0.1266    0.0000 C.2     1  UNL1        0.1904
     24 C           2.9061    1.9428    0.0000 C.2     1  UNL1        0.1870
     25 C           9.9301   -1.1127    0.0000 C.ar    1  UNL1       -0.0165
     26 C           2.0000    0.3873    0.0000 C.2     1  UNL1       -0.0106
     27 C           2.0000    1.4289    0.0000 C.2     1  UNL1       -0.0107
     28 C          10.7942    0.4322    0.0000 C.3     1  UNL1       -0.0396
     29 H           4.6660    2.5281    0.0000 H       1  UNL1        0.0628
     30 H           5.8612   -1.4019    0.0000 H       1  UNL1        0.0663
     31 H           9.0169    1.0627    0.0000 H       1  UNL1        0.0627
     32 H           6.7081    1.3712    0.0000 H       1  UNL1        0.0278
     33 H           6.9350    2.2181    0.0000 H       1  UNL1        0.0278
     34 H           6.0881    2.4450    0.0000 H       1  UNL1        0.0278
     35 H          10.4659   -1.4248    0.0000 H       1  UNL1        0.0657
     36 H           1.4643    0.0752    0.0000 H       1  UNL1        0.0657
     37 H           1.4643    1.7410    0.0000 H       1  UNL1        0.0657
     38 H          11.1063   -0.1035    0.0000 H       1  UNL1        0.0278
     39 H          11.3300    0.7443    0.0000 H       1  UNL1        0.0278
     40 H          10.4822    0.9680    0.0000 H       1  UNL1        0.0278
     41 H           4.1291   -1.4019    0.0000 H       1  UNL1        0.2922
     42 H           9.5458   -2.9427    0.0000 H       1  UNL1        0.2922
@<TRIPOS>BOND
     1     1    11    1
     2     1    41    1
     3     2    15    2
     4     3    20    1
     5     3    42    1
     6     4    18    2
     7     5    23    2
     8     6    24    2
     9     7     8    1
    10     7     9   ar
    11     7    11   ar
    12     8    15    1
    13     8    17    2
    14     9    16   ar
    15     9    22    1
    16    10    13   ar
    17    10    15    1
    18    10    19   ar
    19    11    12   ar
    20    12    14   ar
    21    12    23    1
    22    13    18    1
    23    13    20   ar
    24    14    16   ar
    25    14    24    1
    26    16    29    1
    27    17    18    1
    28    17    30    1
    29    19    21   ar
    30    19    31    1
    31    20    25   ar
    32    21    25   ar
    33    21    28    1
    34    22    32    1
    35    22    33    1
    36    22    34    1
    37    23    26    1
    38    24    27    1
    39    25    35    1
    40    26    27    2
    41    26    36    1
    42    27    37    1
    43    28    38    1
    44    28    39    1
    45    28    40    1
