@<TRIPOS>MOLECULE
IMPHY013938
 30 30 0 0 0
SMALL
GASTEIGER

@<TRIPOS>ATOM
      1 O           2.6200    1.4330    0.0000 O.3     1  UNL1       -0.3843
      2 O           2.6200   -2.2990    0.0000 O.3     1  UNL1       -0.3848
      3 C           3.1200    0.5670    0.0000 C.3     1  UNL1        0.0866
      4 C           2.2540    0.0670    0.0000 C.3     1  UNL1       -0.0173
      5 C           2.2540   -0.9330    0.0000 C.3     1  UNL1       -0.0177
      6 C           3.6200    1.4330    0.0000 C.3     1  UNL1       -0.0142
      7 C           3.1200   -1.4330    0.0000 C.3     1  UNL1        0.0815
      8 C           3.9860    0.0670    0.0000 C.2     1  UNL1       -0.0539
      9 C           3.9860   -0.9330    0.0000 C.2     1  UNL1       -0.0544
     10 C           4.6200    1.4330    0.0000 C.3     1  UNL1       -0.0598
     11 C           3.1200    2.2990    0.0000 C.3     1  UNL1       -0.0598
     12 C           3.6200   -2.2990    0.0000 C.3     1  UNL1       -0.0324
     13 H           2.0419    0.6496    0.0000 H       1  UNL1        0.0297
     14 H           1.6434   -0.0407    0.0000 H       1  UNL1        0.0297
     15 H           1.6434   -0.8254    0.0000 H       1  UNL1        0.0297
     16 H           2.0419   -1.5156    0.0000 H       1  UNL1        0.0297
     17 H           3.9300    1.9700    0.0000 H       1  UNL1        0.0326
     18 H           4.5230    0.3770    0.0000 H       1  UNL1        0.0598
     19 H           4.5230   -1.2430    0.0000 H       1  UNL1        0.0598
     20 H           4.6200    0.8130    0.0000 H       1  UNL1        0.0233
     21 H           5.2400    1.4330    0.0000 H       1  UNL1        0.0233
     22 H           4.6200    2.0530    0.0000 H       1  UNL1        0.0233
     23 H           3.6569    2.6090    0.0000 H       1  UNL1        0.0233
     24 H           2.8100    2.8360    0.0000 H       1  UNL1        0.0233
     25 H           2.5831    1.9890    0.0000 H       1  UNL1        0.0233
     26 H           3.0831   -2.6090    0.0000 H       1  UNL1        0.0260
     27 H           3.9300   -2.8360    0.0000 H       1  UNL1        0.0260
     28 H           4.1569   -1.9890    0.0000 H       1  UNL1        0.0260
     29 H           2.0000    1.4330    0.0000 H       1  UNL1        0.2106
     30 H           2.0000   -2.2990    0.0000 H       1  UNL1        0.2106
@<TRIPOS>BOND
     1     1     3    1
     2     1    29    1
     3     2     7    1
     4     2    30    1
     5     3     4    1
     6     3     6    1
     7     3     8    1
     8     4     5    1
     9     4    13    1
    10     4    14    1
    11     5     7    1
    12     5    15    1
    13     5    16    1
    14     6    10    1
    15     6    11    1
    16     6    17    1
    17     7     9    1
    18     7    12    1
    19     8     9    2
    20     8    18    1
    21     9    19    1
    22    10    20    1
    23    10    21    1
    24    10    22    1
    25    11    23    1
    26    11    24    1
    27    11    25    1
    28    12    26    1
    29    12    27    1
    30    12    28    1
