@<TRIPOS>MOLECULE
IMPHY011933
 21 21 0 0 0
SMALL
GASTEIGER

@<TRIPOS>ATOM
      1 O           2.5369   -2.1550    0.0000 O.3     1  UNL1       -0.5033
      2 O           4.2690   -3.1550    0.0000 O.3     1  UNL1       -0.5033
      3 O           6.0010    2.8450    0.0000 O.3     1  UNL1       -0.4775
      4 O           4.2690    2.8450    0.0000 O.2     1  UNL1       -0.2458
      5 C           4.2690   -0.1550    0.0000 C.ar    1  UNL1       -0.0211
      6 C           3.4030   -0.6550    0.0000 C.ar    1  UNL1       -0.0094
      7 C           5.1350   -0.6550    0.0000 C.ar    1  UNL1       -0.0509
      8 C           3.4030   -1.6550    0.0000 C.ar    1  UNL1        0.1588
      9 C           4.2690   -2.1550    0.0000 C.ar    1  UNL1        0.1582
     10 C           5.1350   -1.6550    0.0000 C.ar    1  UNL1       -0.0160
     11 C           4.2690    0.8450    0.0000 C.2     1  UNL1       -0.0477
     12 C           5.1350    1.3450    0.0000 C.2     1  UNL1        0.0229
     13 C           5.1350    2.3450    0.0000 C.2     1  UNL1        0.3296
     14 H           2.8660   -0.3450    0.0000 H       1  UNL1        0.0661
     15 H           5.6720   -0.3450    0.0000 H       1  UNL1        0.0625
     16 H           5.6720   -1.9650    0.0000 H       1  UNL1        0.0655
     17 H           3.7320    1.1550    0.0000 H       1  UNL1        0.0626
     18 H           5.6720    1.0350    0.0000 H       1  UNL1        0.0689
     19 H           2.0000   -1.8450    0.0000 H       1  UNL1        0.2923
     20 H           4.8059   -3.4650    0.0000 H       1  UNL1        0.2923
     21 H           6.0010    3.4650    0.0000 H       1  UNL1        0.2954
@<TRIPOS>BOND
     1     1     8    1
     2     1    19    1
     3     2     9    1
     4     2    20    1
     5     3    13    1
     6     3    21    1
     7     4    13    2
     8     5     6   ar
     9     5     7   ar
    10     5    11    1
    11     6     8   ar
    12     6    14    1
    13     7    10   ar
    14     7    15    1
    15     8     9   ar
    16     9    10   ar
    17    10    16    1
    18    11    12    2
    19    11    17    1
    20    12    13    1
    21    12    18    1
