@<TRIPOS>MOLECULE
IMPHY006556
 19 19 0 0 0
SMALL
GASTEIGER

@<TRIPOS>ATOM
      1 O           2.5369    0.2500    0.0000 O.3     1  UNL1       -0.5065
      2 C           4.2690    0.2500    0.0000 C.ar    1  UNL1       -0.0062
      3 C           4.2690    1.2500    0.0000 C.3     1  UNL1       -0.0271
      4 C           3.4030   -0.2500    0.0000 C.ar    1  UNL1        0.1200
      5 C           5.1350   -0.2500    0.0000 C.ar    1  UNL1       -0.0551
      6 C           5.1350    1.7500    0.0000 C.3     1  UNL1       -0.0611
      7 C           3.4030   -1.2500    0.0000 C.ar    1  UNL1       -0.0199
      8 C           5.1350   -1.2500    0.0000 C.ar    1  UNL1       -0.0613
      9 C           4.2690   -1.7500    0.0000 C.ar    1  UNL1       -0.0583
     10 H           4.0569    1.8326    0.0000 H       1  UNL1        0.0312
     11 H           3.6584    1.1423    0.0000 H       1  UNL1        0.0312
     12 H           5.6720    0.0600    0.0000 H       1  UNL1        0.0621
     13 H           5.4450    1.2131    0.0000 H       1  UNL1        0.0233
     14 H           5.6720    2.0600    0.0000 H       1  UNL1        0.0233
     15 H           4.8250    2.2869    0.0000 H       1  UNL1        0.0233
     16 H           2.8660   -1.5600    0.0000 H       1  UNL1        0.0654
     17 H           5.6720   -1.5600    0.0000 H       1  UNL1        0.0618
     18 H           4.2690   -2.3700    0.0000 H       1  UNL1        0.0619
     19 H           2.0000   -0.0600    0.0000 H       1  UNL1        0.2921
@<TRIPOS>BOND
     1     1     4    1
     2     1    19    1
     3     2     3    1
     4     2     4   ar
     5     2     5   ar
     6     3     6    1
     7     3    10    1
     8     3    11    1
     9     4     7   ar
    10     5     8   ar
    11     5    12    1
    12     6    13    1
    13     6    14    1
    14     6    15    1
    15     7     9   ar
    16     7    16    1
    17     8     9   ar
    18     8    17    1
    19     9    18    1
