@<TRIPOS>MOLECULE
IMPHY017099
 17 17 0 0 0
SMALL
GASTEIGER

@<TRIPOS>ATOM
      1 S           4.5411    1.7694    0.0000 S.2     1  UNL1        0.0203
      2 N           2.8090    0.7694    0.0000 N.2     1  UNL1       -0.2312
      3 C           2.8090   -0.2306    0.0000 C.3     1  UNL1        0.0607
      4 C           2.0000   -0.8184    0.0000 C.3     1  UNL1       -0.0298
      5 C           3.6180   -0.8184    0.0000 C.3     1  UNL1       -0.0298
      6 C           2.3090   -1.7694    0.0000 C.3     1  UNL1       -0.0510
      7 C           3.3090   -1.7694    0.0000 C.3     1  UNL1       -0.0510
      8 C           3.6750    1.2694    0.0000 C.1     1  UNL1        0.0361
      9 H           3.3614    0.0509    0.0000 H       1  UNL1        0.0552
     10 H           1.6900   -0.2814    0.0000 H       1  UNL1        0.0286
     11 H           1.4336   -1.0705    0.0000 H       1  UNL1        0.0286
     12 H           4.1844   -1.0705    0.0000 H       1  UNL1        0.0286
     13 H           3.9280   -0.2814    0.0000 H       1  UNL1        0.0286
     14 H           1.7026   -1.8983    0.0000 H       1  UNL1        0.0266
     15 H           2.3738   -2.3860    0.0000 H       1  UNL1        0.0266
     16 H           3.2442   -2.3860    0.0000 H       1  UNL1        0.0266
     17 H           3.9155   -1.8983    0.0000 H       1  UNL1        0.0266
@<TRIPOS>BOND
     1     1     8    2
     2     2     3    1
     3     2     8    2
     4     3     4    1
     5     3     5    1
     6     3     9    1
     7     4     6    1
     8     4    10    1
     9     4    11    1
    10     5     7    1
    11     5    12    1
    12     5    13    1
    13     6     7    1
    14     6    14    1
    15     6    15    1
    16     7    16    1
    17     7    17    1
