@<TRIPOS>MOLECULE
IMPHY005123
 24 24 0 0 0
SMALL
GASTEIGER

@<TRIPOS>ATOM
      1 O           5.4641    2.0950    0.0000 O.3     1  UNL1       -0.3875
      2 O           2.8660   -1.4050    0.0000 O.3     1  UNL1       -0.4914
      3 O           4.5981   -2.4050    0.0000 O.3     1  UNL1       -0.5033
      4 C           4.5981    1.5950    0.0000 C.3     1  UNL1        0.0775
      5 C           4.5981    0.5950    0.0000 C.ar    1  UNL1       -0.0157
      6 C           3.7320    0.0950    0.0000 C.ar    1  UNL1       -0.0107
      7 C           5.4641    0.0950    0.0000 C.ar    1  UNL1       -0.0525
      8 C           3.7320   -0.9050    0.0000 C.ar    1  UNL1        0.1616
      9 C           3.7320    2.0950    0.0000 C.3     1  UNL1       -0.0348
     10 C           4.5981   -1.4050    0.0000 C.ar    1  UNL1        0.1585
     11 C           5.4641   -0.9050    0.0000 C.ar    1  UNL1       -0.0162
     12 C           2.0000   -0.9050    0.0000 C.3     1  UNL1        0.0790
     13 H           4.5981    2.2150    0.0000 H       1  UNL1        0.0641
     14 H           3.1951    0.4050    0.0000 H       1  UNL1        0.0659
     15 H           6.0010    0.4050    0.0000 H       1  UNL1        0.0622
     16 H           4.0420    2.6319    0.0000 H       1  UNL1        0.0258
     17 H           3.1951    2.4050    0.0000 H       1  UNL1        0.0258
     18 H           3.4220    1.5581    0.0000 H       1  UNL1        0.0258
     19 H           6.0010   -1.2150    0.0000 H       1  UNL1        0.0655
     20 H           5.4641    2.7150    0.0000 H       1  UNL1        0.2102
     21 H           2.3100   -0.3681    0.0000 H       1  UNL1        0.0660
     22 H           1.4631   -0.5950    0.0000 H       1  UNL1        0.0660
     23 H           1.6900   -1.4419    0.0000 H       1  UNL1        0.0660
     24 H           5.1350   -2.7150    0.0000 H       1  UNL1        0.2923
@<TRIPOS>BOND
     1     1     4    1
     2     1    20    1
     3     2     8    1
     4     2    12    1
     5     3    10    1
     6     3    24    1
     7     4     5    1
     8     4     9    1
     9     4    13    1
    10     5     6   ar
    11     5     7   ar
    12     6     8   ar
    13     6    14    1
    14     7    11   ar
    15     7    15    1
    16     8    10   ar
    17     9    16    1
    18     9    17    1
    19     9    18    1
    20    10    11   ar
    21    11    19    1
    22    12    21    1
    23    12    22    1
    24    12    23    1
