@<TRIPOS>MOLECULE
IMPHY009533
 34 35 0 0 0
SMALL
GASTEIGER

@<TRIPOS>ATOM
      1 O           2.0000    0.4015    0.0000 O.3     1  UNL1       -0.3547
      2 O           6.9677   -2.0926    0.0000 O.2     1  UNL1       -0.4515
      3 O           4.9997   -2.7919    0.0000 O.2     1  UNL1       -0.2742
      4 O          10.0061    0.5026    0.0000 O.3     1  UNL1       -0.4649
      5 O           8.3119    0.1425    0.0000 O.2     1  UNL1       -0.2456
      6 C           2.6691    1.1447    0.0000 C.3     1  UNL1        0.0974
      7 C           2.9782    0.1936    0.0000 C.3     1  UNL1        0.1458
      8 C           2.8770    2.1228    0.0000 C.3     1  UNL1       -0.0260
      9 C           2.1339    2.7919    0.0000 C.3     1  UNL1       -0.0628
     10 C           3.7213   -0.4755    0.0000 C.1     1  UNL1       -0.0595
     11 C           4.4644   -1.1447    0.0000 C.1     1  UNL1       -0.0177
     12 C           5.2076   -1.8138    0.0000 C.2     1  UNL1        0.2708
     13 C           6.1586   -1.5048    0.0000 C.ar    1  UNL1        0.1837
     14 C           6.4677   -0.5537    0.0000 C.ar    1  UNL1       -0.0113
     15 C           7.7767   -1.5048    0.0000 C.ar    1  UNL1        0.1290
     16 C           7.4677   -0.5537    0.0000 C.ar    1  UNL1       -0.0157
     17 C           8.7277   -1.8138    0.0000 C.2     1  UNL1       -0.0126
     18 C           9.4709   -1.1447    0.0000 C.2     1  UNL1        0.0260
     19 C           9.2630   -0.1665    0.0000 C.2     1  UNL1        0.3318
     20 C           9.7982    1.4808    0.0000 C.3     1  UNL1        0.0820
     21 H           2.1167    1.4261    0.0000 H       1  UNL1        0.0632
     22 H           2.6967   -0.3588    0.0000 H       1  UNL1        0.0760
     23 H           3.4519    1.8906    0.0000 H       1  UNL1        0.0289
     24 H           3.2056    2.6486    0.0000 H       1  UNL1        0.0289
     25 H           2.5488    3.2527    0.0000 H       1  UNL1        0.0231
     26 H           1.6732    3.2068    0.0000 H       1  UNL1        0.0231
     27 H           1.7190    2.3312    0.0000 H       1  UNL1        0.0231
     28 H           6.1032   -0.0521    0.0000 H       1  UNL1        0.0657
     29 H           7.8321   -0.0521    0.0000 H       1  UNL1        0.0655
     30 H           8.8566   -2.4202    0.0000 H       1  UNL1        0.0656
     31 H          10.0605   -1.3362    0.0000 H       1  UNL1        0.0690
     32 H          10.4046    1.6097    0.0000 H       1  UNL1        0.0661
     33 H           9.6693    2.0872    0.0000 H       1  UNL1        0.0661
     34 H           9.1917    1.3519    0.0000 H       1  UNL1        0.0661
@<TRIPOS>BOND
     1     1     6    1
     2     1     7    1
     3     2    13   ar
     4     2    15   ar
     5     3    12    2
     6     4    19    1
     7     4    20    1
     8     5    19    2
     9     6     7    1
    10     6     8    1
    11     6    21    1
    12     7    10    1
    13     7    22    1
    14     8     9    1
    15     8    23    1
    16     8    24    1
    17     9    25    1
    18     9    26    1
    19     9    27    1
    20    10    11    3
    21    11    12    1
    22    12    13    1
    23    13    14   ar
    24    14    16   ar
    25    14    28    1
    26    15    16   ar
    27    15    17    1
    28    16    29    1
    29    17    18    2
    30    17    30    1
    31    18    19    1
    32    18    31    1
    33    20    32    1
    34    20    33    1
    35    20    34    1
