@<TRIPOS>MOLECULE
IMPHY000354
 52 58 0 0 0
SMALL
GASTEIGER

@<TRIPOS>ATOM
      1 O           8.6073    1.6297    0.0000 O.3     1  UNL1       -0.3735
      2 O           8.5342   -2.0918    0.0000 O.3     1  UNL1       -0.3717
      3 O           5.2671   -2.1297    0.0000 O.2     1  UNL1       -0.2752
      4 O           2.8660    1.1808    0.0000 O.3     1  UNL1       -0.4951
      5 N           7.5417    2.0468    0.0000 N.3     1  UNL1       -0.2704
      6 N           6.1331   -0.7055    0.0000 N.am    1  UNL1       -0.2666
      7 C           6.9335    0.6808    0.0000 C.3     1  UNL1        0.0604
      8 C           7.7339    1.1428    0.0000 C.3     1  UNL1        0.1322
      9 C           6.9335   -0.2434    0.0000 C.3     1  UNL1        0.0504
     10 C           7.7339   -0.7055    0.0000 C.3     1  UNL1        0.0124
     11 C           8.5342   -0.2434    0.0000 C.3     1  UNL1       -0.0078
     12 C           8.5342    0.6808    0.0000 C.3     1  UNL1       -0.0022
     13 C           6.2467    1.2992    0.0000 C.3     1  UNL1       -0.0247
     14 C           5.3328    0.6808    0.0000 C.ar    1  UNL1       -0.0105
     15 C           6.6226    2.1434    0.0000 C.3     1  UNL1        0.0028
     16 C           7.7339   -1.6297    0.0000 C.3     1  UNL1        0.0724
     17 C           9.3945   -0.5811    0.0000 C.2     1  UNL1       -0.0537
     18 C           9.3587    1.2455    0.0000 C.3     1  UNL1        0.0229
     19 C           5.3328   -0.2434    0.0000 C.ar    1  UNL1        0.0407
     20 C           6.9335   -2.0918    0.0000 C.3     1  UNL1        0.0511
     21 C           6.1331   -1.6297    0.0000 C.2     1  UNL1        0.2225
     22 C           4.5324    1.1428    0.0000 C.ar    1  UNL1       -0.0143
     23 C           9.7078   -1.2189    0.0000 C.2     1  UNL1       -0.0579
     24 C           9.2560   -2.0815    0.0000 C.3     1  UNL1        0.0665
     25 C           4.5324   -0.7055    0.0000 C.ar    1  UNL1       -0.0365
     26 C           3.7320    0.6808    0.0000 C.ar    1  UNL1        0.1205
     27 C           3.7320   -0.2434    0.0000 C.ar    1  UNL1       -0.0182
     28 C           2.0000    0.6808    0.0000 C.3     1  UNL1        0.0788
     29 H           6.9361   -1.0934    0.0000 H       1  UNL1        0.0518
     30 H           8.4700   -1.1305    0.0000 H       1  UNL1        0.0350
     31 H           9.2365    0.2354    0.0000 H       1  UNL1        0.0351
     32 H           9.1448    0.5731    0.0000 H       1  UNL1        0.0312
     33 H           8.7463    1.2634    0.0000 H       1  UNL1        0.0312
     34 H           5.7098    1.6092    0.0000 H       1  UNL1        0.0288
     35 H           5.8823    0.7976    0.0000 H       1  UNL1        0.0288
     36 H           6.7515    2.7499    0.0000 H       1  UNL1        0.0428
     37 H           6.0329    2.3350    0.0000 H       1  UNL1        0.0428
     38 H           7.7265   -2.4797    0.0000 H       1  UNL1        0.0604
     39 H           9.9738    1.1680    0.0000 H       1  UNL1        0.0473
     40 H           9.5243    1.8430    0.0000 H       1  UNL1        0.0473
     41 H           6.5350   -2.5667    0.0000 H       1  UNL1        0.0384
     42 H           7.3320   -2.5667    0.0000 H       1  UNL1        0.0384
     43 H           8.6167    2.2497    0.0000 H       1  UNL1        0.2118
     44 H           4.5324    1.7628    0.0000 H       1  UNL1        0.0658
     45 H          10.3278   -1.2270    0.0000 H       1  UNL1        0.0595
     46 H           9.1625   -2.6944    0.0000 H       1  UNL1        0.0604
     47 H           9.8451   -2.2747    0.0000 H       1  UNL1        0.0604
     48 H           4.5324   -1.3255    0.0000 H       1  UNL1        0.0637
     49 H           3.1951   -0.5534    0.0000 H       1  UNL1        0.0655
     50 H           1.6900    1.2177    0.0000 H       1  UNL1        0.0660
     51 H           1.4631    0.3708    0.0000 H       1  UNL1        0.0660
     52 H           2.3100    0.1438    0.0000 H       1  UNL1        0.0660
@<TRIPOS>BOND
     1     8     1    1
     2     1    43    1
     3     2    16    1
     4     2    24    1
     5     3    21    2
     6     4    26    1
     7     4    28    1
     8     5     8    1
     9     5    15    1
    10     5    18    1
    11     6     9    1
    12     6    19    1
    13     6    21   am
    14     7     8    1
    15     7     9    1
    16     7    13    1
    17     7    14    1
    18     8    12    1
    19     9    10    1
    20     9    29    1
    21    10    11    1
    22    10    16    1
    23    10    30    1
    24    11    12    1
    25    11    17    1
    26    11    31    1
    27    12    32    1
    28    12    33    1
    29    13    15    1
    30    13    34    1
    31    13    35    1
    32    14    19   ar
    33    14    22   ar
    34    15    36    1
    35    15    37    1
    36    16    20    1
    37    16    38    1
    38    17    18    1
    39    17    23    2
    40    18    39    1
    41    18    40    1
    42    19    25   ar
    43    20    21    1
    44    20    41    1
    45    20    42    1
    46    22    26   ar
    47    22    44    1
    48    23    24    1
    49    23    45    1
    50    24    46    1
    51    24    47    1
    52    25    27   ar
    53    25    48    1
    54    26    27   ar
    55    27    49    1
    56    28    50    1
    57    28    51    1
    58    28    52    1
