@<TRIPOS>MOLECULE
IMPHY008593
 33 35 0 0 0
SMALL
GASTEIGER

@<TRIPOS>ATOM
      1 O           6.0290   -0.9259    0.0000 O.2     1  UNL1       -0.4544
      2 O           2.5369   -0.8913    0.0000 O.3     1  UNL1       -0.4912
      3 O           4.2690    2.1087    0.0000 O.3     1  UNL1       -0.5027
      4 O           2.5369    1.1087    0.0000 O.3     1  UNL1       -0.5009
      5 O           6.0174    2.1433    0.0000 O.2     1  UNL1       -0.2869
      6 C           5.1350    0.6087    0.0000 C.ar    1  UNL1        0.1091
      7 C           5.1350   -0.3913    0.0000 C.ar    1  UNL1        0.1465
      8 C           6.9350   -0.4121    0.0000 C.ar    1  UNL1        0.1392
      9 C           4.2690    1.1087    0.0000 C.ar    1  UNL1        0.1766
     10 C           6.0290    1.1434    0.0000 C.ar    1  UNL1        0.1967
     11 C           4.2690   -0.8913    0.0000 C.ar    1  UNL1        0.0270
     12 C           6.9350    0.6296    0.0000 C.ar    1  UNL1        0.0288
     13 C           3.4030   -0.3913    0.0000 C.ar    1  UNL1        0.1685
     14 C           3.4030    0.6087    0.0000 C.ar    1  UNL1        0.2018
     15 C           7.7991   -0.9154    0.0000 C.ar    1  UNL1        0.0174
     16 C           7.7953   -1.9154    0.0000 C.ar    1  UNL1       -0.0511
     17 C           8.6671   -0.4188    0.0000 C.ar    1  UNL1       -0.0511
     18 C           8.6594   -2.4187    0.0000 C.ar    1  UNL1       -0.0611
     19 C           9.5312   -0.9221    0.0000 C.ar    1  UNL1       -0.0611
     20 C           9.5273   -1.9221    0.0000 C.ar    1  UNL1       -0.0617
     21 C           2.5369   -1.8913    0.0000 C.3     1  UNL1        0.0790
     22 H           4.2690   -1.5113    0.0000 H       1  UNL1        0.0692
     23 H           7.4708    0.9416    0.0000 H       1  UNL1        0.0693
     24 H           7.2571   -2.2233    0.0000 H       1  UNL1        0.0625
     25 H           8.6694    0.2012    0.0000 H       1  UNL1        0.0625
     26 H           8.6570   -3.0387    0.0000 H       1  UNL1        0.0618
     27 H          10.0693   -0.6142    0.0000 H       1  UNL1        0.0618
     28 H           3.7320    2.4187    0.0000 H       1  UNL1        0.2923
     29 H          10.0630   -2.2342    0.0000 H       1  UNL1        0.0618
     30 H           2.0000    0.7987    0.0000 H       1  UNL1        0.2924
     31 H           1.9169   -1.8913    0.0000 H       1  UNL1        0.0660
     32 H           2.5369   -2.5113    0.0000 H       1  UNL1        0.0660
     33 H           3.1569   -1.8913    0.0000 H       1  UNL1        0.0660
@<TRIPOS>BOND
     1     1     7   ar
     2     1     8   ar
     3     2    13    1
     4     2    21    1
     5     3     9    1
     6     3    28    1
     7     4    14    1
     8     4    30    1
     9     5    10    2
    10     6     7   ar
    11     6     9   ar
    12     6    10   ar
    13     7    11   ar
    14     8    12   ar
    15     8    15    1
    16     9    14   ar
    17    10    12   ar
    18    11    13   ar
    19    11    22    1
    20    12    23    1
    21    13    14   ar
    22    15    16   ar
    23    15    17   ar
    24    16    18   ar
    25    16    24    1
    26    17    19   ar
    27    17    25    1
    28    18    20   ar
    29    18    26    1
    30    19    20   ar
    31    19    27    1
    32    20    29    1
    33    21    31    1
    34    21    32    1
    35    21    33    1
