@<TRIPOS>MOLECULE
IMPHY015042
 27 27 0 0 0
SMALL
GASTEIGER

@<TRIPOS>ATOM
      1 O           2.0000    0.7500    0.0000 O.2     1  UNL1       -0.2924
      2 C           3.7320    0.7500    0.0000 C.3     1  UNL1        0.0241
      3 C           3.7320    1.7500    0.0000 C.3     1  UNL1       -0.0369
      4 C           4.5981    0.2500    0.0000 C.3     1  UNL1       -0.0393
      5 C           4.5981   -0.7500    0.0000 C.3     1  UNL1       -0.0310
      6 C           2.8660    0.2500    0.0000 C.2     1  UNL1        0.1593
      7 C           3.7320   -1.2500    0.0000 C.2     1  UNL1       -0.0693
      8 C           4.5981    2.2500    0.0000 C.3     1  UNL1       -0.0620
      9 C           2.8660    2.2500    0.0000 C.3     1  UNL1       -0.0620
     10 C           2.8660   -0.7500    0.0000 C.2     1  UNL1       -0.0199
     11 C           3.7320   -2.2500    0.0000 C.3     1  UNL1       -0.0434
     12 H           4.2690    1.0600    0.0000 H       1  UNL1        0.0383
     13 H           3.7320    2.3700    0.0000 H       1  UNL1        0.0302
     14 H           5.2087    0.1423    0.0000 H       1  UNL1        0.0275
     15 H           4.8101    0.8326    0.0000 H       1  UNL1        0.0275
     16 H           4.8101   -1.3326    0.0000 H       1  UNL1        0.0310
     17 H           5.2087   -0.6423    0.0000 H       1  UNL1        0.0310
     18 H           4.9081    1.7131    0.0000 H       1  UNL1        0.0233
     19 H           5.1350    2.5600    0.0000 H       1  UNL1        0.0233
     20 H           4.2881    2.7869    0.0000 H       1  UNL1        0.0233
     21 H           3.1760    2.7869    0.0000 H       1  UNL1        0.0233
     22 H           2.3291    2.5600    0.0000 H       1  UNL1        0.0233
     23 H           2.5560    1.7131    0.0000 H       1  UNL1        0.0233
     24 H           2.3291   -1.0600    0.0000 H       1  UNL1        0.0652
     25 H           3.1120   -2.2500    0.0000 H       1  UNL1        0.0274
     26 H           3.7320   -2.8700    0.0000 H       1  UNL1        0.0274
     27 H           4.3520   -2.2500    0.0000 H       1  UNL1        0.0274
@<TRIPOS>BOND
     1     1     6    2
     2     2     3    1
     3     2     4    1
     4     2     6    1
     5     2    12    1
     6     3     8    1
     7     3     9    1
     8     3    13    1
     9     4     5    1
    10     4    14    1
    11     4    15    1
    12     5     7    1
    13     5    16    1
    14     5    17    1
    15     6    10    1
    16     7    10    2
    17     7    11    1
    18     8    18    1
    19     8    19    1
    20     8    20    1
    21     9    21    1
    22     9    22    1
    23     9    23    1
    24    10    24    1
    25    11    25    1
    26    11    26    1
    27    11    27    1
