@<TRIPOS>MOLECULE
IMPHY010760
 16 16 0 0 0
SMALL
GASTEIGER

@<TRIPOS>ATOM
      1 C           0.0000    0.0000    0.0000 C.3     1  UNL1        0.0910
      2 C           1.1587   -0.6691    0.0000 C.1     1  UNL1       -0.0768
      3 C           2.3012   -1.3219    0.0000 C.1     1  UNL1       -0.0132
      4 C           3.4599   -1.9911    0.0000 C.1     1  UNL1       -0.0009
      5 C           4.6186   -2.6602    0.0000 C.1     1  UNL1       -0.0006
      6 C           5.7611   -3.3293    0.0000 C.1     1  UNL1       -0.0086
      7 C           6.9198   -3.9985    0.0000 C.1     1  UNL1       -0.0508
      8 C           8.0786   -4.6513    0.0000 C.2     1  UNL1        0.0481
      9 C           9.2210   -3.9985    0.0000 C.2     1  UNL1        0.0142
     10 C          10.3797   -4.6513    0.0000 C.3     1  UNL1        0.1648
     11 C          11.7017   -4.6513    0.0000 C.3     1  UNL1        0.1469
     12 C          12.8604   -3.9985    0.0000 C.3     1  UNL1        0.0351
     13 C          14.0191   -4.6513    0.0000 C.3     1  UNL1        0.0381
     14 C          15.1616   -3.9985    0.0000 C.3     1  UNL1        0.1822
     15 O          16.3203   -4.6513    0.0000 O.3     1  UNL1       -0.2204
     16 O          11.0489   -5.8100    0.0000 O.3     1  UNL1       -0.3490
@<TRIPOS>BOND
     1     1     2    1
     2     2     3    3
     3     3     4    1
     4     4     5    3
     5     5     6    1
     6     6     7    3
     7     7     8    1
     8     8     9    2
     9     9    10    1
    10    10    11    1
    11    10    16    1
    12    11    12    1
    13    11    16    1
    14    12    13    1
    15    13    14    1
    16    14    15    1
