@<TRIPOS>MOLECULE
IMPHY015210
 27 26 0 0 0
SMALL
GASTEIGER

@<TRIPOS>ATOM
      1 O           2.0000   -0.0000    0.0000 O.2     1  UNL1       -0.3001
      2 C           3.7320    0.0000    0.0000 C.3     1  UNL1        0.0456
      3 C           3.2320    0.8660    0.0000 C.3     1  UNL1       -0.0493
      4 C           4.2320   -0.8660    0.0000 C.3     1  UNL1       -0.0493
      5 C           4.5981    0.5000    0.0000 C.2     1  UNL1       -0.0296
      6 C           7.1962   -0.0000    0.0000 C.3     1  UNL1       -0.0275
      7 C           8.0622   -0.5000    0.0000 C.3     1  UNL1       -0.0519
      8 C           2.8660   -0.5000    0.0000 C.2     1  UNL1        0.1302
      9 C           6.3301   -0.5000    0.0000 C.2     1  UNL1       -0.0421
     10 C           5.4641    0.0000    0.0000 C.1     1  UNL1       -0.1274
     11 C           8.9282   -0.0000    0.0000 C.3     1  UNL1       -0.0650
     12 H           3.7690    1.1760    0.0000 H       1  UNL1        0.0242
     13 H           2.9220    1.4030    0.0000 H       1  UNL1        0.0242
     14 H           2.6951    0.5560    0.0000 H       1  UNL1        0.0242
     15 H           3.6951   -1.1760    0.0000 H       1  UNL1        0.0242
     16 H           4.5420   -1.4030    0.0000 H       1  UNL1        0.0242
     17 H           4.7690   -0.5560    0.0000 H       1  UNL1        0.0242
     18 H           4.5981    1.1200    0.0000 H       1  UNL1        0.0669
     19 H           7.5947    0.4749    0.0000 H       1  UNL1        0.0313
     20 H           6.7976    0.4749    0.0000 H       1  UNL1        0.0313
     21 H           7.6636   -0.9749    0.0000 H       1  UNL1        0.0266
     22 H           8.4607   -0.9749    0.0000 H       1  UNL1        0.0266
     23 H           2.8660   -1.1200    0.0000 H       1  UNL1        0.1035
     24 H           6.3301   -1.1200    0.0000 H       1  UNL1        0.0659
     25 H           9.2382   -0.5369    0.0000 H       1  UNL1        0.0230
     26 H           9.4651    0.3100    0.0000 H       1  UNL1        0.0230
     27 H           8.6182    0.5369    0.0000 H       1  UNL1        0.0230
@<TRIPOS>BOND
     1     1     8    2
     2     2     3    1
     3     2     4    1
     4     2     5    1
     5     2     8    1
     6     3    12    1
     7     3    13    1
     8     3    14    1
     9     4    15    1
    10     4    16    1
    11     4    17    1
    12     5    10    2
    13     5    18    1
    14     6     7    1
    15     6     9    1
    16     6    19    1
    17     6    20    1
    18     7    11    1
    19     7    21    1
    20     7    22    1
    21     8    23    1
    22     9    10    2
    23     9    24    1
    24    11    25    1
    25    11    26    1
    26    11    27    1
