@<TRIPOS>MOLECULE
IMPHY000437
 40 43 0 0 0
SMALL
GASTEIGER

@<TRIPOS>ATOM
      1 O           2.7493    0.0293    0.0000 O.3     1  UNL1       -0.5060
      2 O           4.8717    3.4303    0.0000 O.2     1  UNL1       -0.2879
      3 N           5.3717   -2.1086    0.0000 N.pl3   1  UNL1       -0.2498
      4 N           5.6808   -1.1575    0.0000 N.pl3   1  UNL1       -0.2493
      5 C           6.0567   -2.8933    0.0000 C.3     1  UNL1        0.0315
      6 C           6.6962   -0.9252    0.0000 C.3     1  UNL1        0.0315
      7 C           7.0772   -2.6846    0.0000 C.3     1  UNL1       -0.0341
      8 C           7.3991   -1.6939    0.0000 C.3     1  UNL1       -0.0341
      9 C           4.3717   -2.1086    0.0000 C.ar    1  UNL1        0.0605
     10 C           4.8717   -0.5697    0.0000 C.2     1  UNL1        0.0673
     11 C           4.0627   -1.1575    0.0000 C.ar    1  UNL1        0.0620
     12 C           3.6868   -2.8933    0.0000 C.ar    1  UNL1       -0.0353
     13 C           4.8717    0.4303    0.0000 C.2     1  UNL1       -0.0015
     14 C           3.0473   -0.9252    0.0000 C.ar    1  UNL1        0.1279
     15 C           2.6663   -2.6846    0.0000 C.ar    1  UNL1       -0.0452
     16 C           2.3444   -1.6939    0.0000 C.ar    1  UNL1       -0.0165
     17 C           5.7378    0.9303    0.0000 C.2     1  UNL1       -0.0491
     18 C           4.0057    0.9303    0.0000 C.2     1  UNL1       -0.0491
     19 C           2.0000   -3.4303    0.0000 C.3     1  UNL1       -0.0395
     20 C           5.7378    1.9303    0.0000 C.2     1  UNL1       -0.0143
     21 C           4.0057    1.9303    0.0000 C.2     1  UNL1       -0.0143
     22 C           4.8717    2.4303    0.0000 C.2     1  UNL1        0.1790
     23 H           5.5267   -3.2151    0.0000 H       1  UNL1        0.0482
     24 H           6.2830   -3.4705    0.0000 H       1  UNL1        0.0482
     25 H           7.2186   -0.5913    0.0000 H       1  UNL1        0.0482
     26 H           6.4565   -0.3534    0.0000 H       1  UNL1        0.0482
     27 H           7.0957   -3.3043    0.0000 H       1  UNL1        0.0281
     28 H           7.6910   -2.7724    0.0000 H       1  UNL1        0.0281
     29 H           7.9473   -1.9836    0.0000 H       1  UNL1        0.0281
     30 H           7.7783   -1.2034    0.0000 H       1  UNL1        0.0281
     31 H           3.8852   -3.4807    0.0000 H       1  UNL1        0.0639
     32 H           1.7384   -1.5627    0.0000 H       1  UNL1        0.0657
     33 H           6.2747    0.6203    0.0000 H       1  UNL1        0.0625
     34 H           3.4688    0.6203    0.0000 H       1  UNL1        0.0625
     35 H           1.5376   -3.0172    0.0000 H       1  UNL1        0.0278
     36 H           1.5869   -3.8926    0.0000 H       1  UNL1        0.0278
     37 H           2.4623   -3.8434    0.0000 H       1  UNL1        0.0278
     38 H           2.1444    0.1652    0.0000 H       1  UNL1        0.2922
     39 H           6.2747    2.2403    0.0000 H       1  UNL1        0.0656
     40 H           3.4688    2.2403    0.0000 H       1  UNL1        0.0656
@<TRIPOS>BOND
     1     1    14    1
     2     1    38    1
     3     2    22    2
     4     3     4    1
     5     3     5    1
     6     3     9    1
     7     4     6    1
     8     4    10    1
     9     5     7    1
    10     5    23    1
    11     5    24    1
    12     6     8    1
    13     6    25    1
    14     6    26    1
    15     7     8    1
    16     7    27    1
    17     7    28    1
    18     8    29    1
    19     8    30    1
    20     9    11   ar
    21     9    12   ar
    22    10    11    1
    23    10    13    2
    24    11    14   ar
    25    12    15   ar
    26    12    31    1
    27    13    17    1
    28    13    18    1
    29    14    16   ar
    30    15    16   ar
    31    15    19    1
    32    16    32    1
    33    17    20    2
    34    17    33    1
    35    18    21    2
    36    18    34    1
    37    19    35    1
    38    19    36    1
    39    19    37    1
    40    20    22    1
    41    20    39    1
    42    21    22    1
    43    21    40    1
