@<TRIPOS>MOLECULE
IMPHY007715
 176 185 0 0 0
SMALL
GASTEIGER

@<TRIPOS>ATOM
      1 O           9.5620   -2.3299    0.0000 O.3     1  UNL1       -0.3915
      2 O           6.8671   -4.9920    0.0000 O.3     1  UNL1       -0.3423
      3 O           5.0597   -3.9392    0.0000 O.3     1  UNL1       -0.3892
      4 O           9.3112   -4.3003    0.0000 O.3     1  UNL1       -0.3944
      5 O           8.6209    4.2875    0.0000 O.3     1  UNL1       -0.4318
      6 O           9.5042    2.7976    0.0000 O.2     1  UNL1       -0.2501
      7 O           5.1350   -4.9920    0.0000 O.3     1  UNL1       -0.3405
      8 O           9.5741    5.7931    0.0000 O.3     1  UNL1       -0.3312
      9 O           6.8671   -6.9920    0.0000 O.3     1  UNL1       -0.3841
     10 O           5.1350   -7.9920    0.0000 O.3     1  UNL1       -0.3864
     11 O          10.6184    3.4256    0.0000 O.3     1  UNL1       -0.3366
     12 O           3.4030   -6.9920    0.0000 O.3     1  UNL1       -0.3865
     13 O          12.0554    5.0591    0.0000 O.3     1  UNL1       -0.3863
     14 O           2.5369   -5.4920    0.0000 O.3     1  UNL1       -0.3924
     15 O          10.3488    7.7327    0.0000 O.3     1  UNL1       -0.3924
     16 O          12.3084    3.8053    0.0000 O.3     1  UNL1       -0.3431
     17 O          11.0569    1.4743    0.0000 O.3     1  UNL1       -0.3841
     18 O          12.9660    0.8783    0.0000 O.3     1  UNL1       -0.3864
     19 O          14.4367    2.2336    0.0000 O.3     1  UNL1       -0.3402
     20 O          13.9954    0.5071    0.0000 O.3     1  UNL1       -0.3405
     21 O          16.4343    1.3718    0.0000 O.3     1  UNL1       -0.3841
     22 O          16.2319   -0.7943    0.0000 O.3     1  UNL1       -0.3401
     23 O          13.1160   -1.3873    0.0000 O.3     1  UNL1       -0.3924
     24 O          15.1266   -2.1921    0.0000 O.3     1  UNL1       -0.3457
     25 O          17.7063   -2.3942    0.0000 O.3     1  UNL1       -0.3837
     26 O          17.0948   -3.8719    0.0000 O.3     1  UNL1       -0.3812
     27 O          15.0791   -4.6824    0.0000 O.3     1  UNL1       -0.3920
     28 C           7.7681   -0.2917    0.0000 C.3     1  UNL1       -0.0170
     29 C           6.8920   -1.8366    0.0000 C.3     1  UNL1       -0.0202
     30 C           6.9040   -0.7951    0.0000 C.3     1  UNL1       -0.0255
     31 C           7.7643    0.7083    0.0000 C.3     1  UNL1       -0.0050
     32 C           7.7920   -2.3609    0.0000 C.3     1  UNL1        0.0007
     33 C           8.6801   -0.7951    0.0000 C.3     1  UNL1       -0.0201
     34 C           8.6921   -1.8366    0.0000 C.3     1  UNL1        0.0597
     35 C           7.8046   -3.4458    0.0000 C.3     1  UNL1        0.0254
     36 C           6.8963    1.2049    0.0000 C.2     1  UNL1       -0.0629
     37 C           5.9421   -2.3609    0.0000 C.3     1  UNL1       -0.0183
     38 C           6.0361   -0.2984    0.0000 C.3     1  UNL1       -0.0306
     39 C           6.8762    2.2464    0.0000 C.3     1  UNL1       -0.0031
     40 C           8.6723    1.2186    0.0000 C.3     1  UNL1       -0.0424
     41 C           7.7722    2.7776    0.0000 C.3     1  UNL1        0.0744
     42 C           6.8671   -3.9920    0.0000 C.3     1  UNL1        0.0954
     43 C           8.7522   -0.1143    0.0000 C.3     1  UNL1       -0.0584
     44 C           5.9295   -3.4458    0.0000 C.3     1  UNL1        0.0825
     45 C           8.6763    2.2602    0.0000 C.3     1  UNL1       -0.0359
     46 C           6.0279   -1.3333    0.0000 C.3     1  UNL1       -0.0588
     47 C           6.0322    0.7016    0.0000 C.2     1  UNL1       -0.0836
     48 C           8.7497    0.5384    0.0000 C.3     1  UNL1       -0.0553
     49 C           5.9223    2.7633    0.0000 C.3     1  UNL1       -0.0403
     50 C           7.7764    3.8626    0.0000 C.3     1  UNL1       -0.0362
     51 C           8.3113   -4.3080    0.0000 C.3     1  UNL1        0.0524
     52 C           5.9014    3.8481    0.0000 C.3     1  UNL1       -0.0343
     53 C           8.8046   -3.4381    0.0000 C.3     1  UNL1       -0.0547
     54 C           6.8347    4.4014    0.0000 C.3     1  UNL1       -0.0468
     55 C           8.6324    3.2875    0.0000 C.2     1  UNL1        0.3161
     56 C           5.3881    4.7063    0.0000 C.3     1  UNL1       -0.0598
     57 C           4.9015    3.8327    0.0000 C.3     1  UNL1       -0.0598
     58 C           6.0010   -5.4920    0.0000 C.3     1  UNL1        0.1883
     59 C           6.0010   -6.4920    0.0000 C.3     1  UNL1        0.1341
     60 C           9.4810    4.7975    0.0000 C.3     1  UNL1        0.2341
     61 C           5.1350   -6.9920    0.0000 C.3     1  UNL1        0.1141
     62 C           4.2690   -5.4920    0.0000 C.3     1  UNL1        0.1130
     63 C           4.2690   -6.4920    0.0000 C.3     1  UNL1        0.1119
     64 C          10.3992    4.4013    0.0000 C.3     1  UNL1        0.1520
     65 C          11.0597    5.1521    0.0000 C.3     1  UNL1        0.1156
     66 C          10.5498    6.0123    0.0000 C.3     1  UNL1        0.1141
     67 C           3.4030   -4.9920    0.0000 C.3     1  UNL1        0.0730
     68 C          10.9459    6.9305    0.0000 C.3     1  UNL1        0.0731
     69 C          11.5730    3.1276    0.0000 C.3     1  UNL1        0.1885
     70 C          11.7922    2.1520    0.0000 C.3     1  UNL1        0.1341
     71 C          12.7468    1.8540    0.0000 C.3     1  UNL1        0.1143
     72 C          13.2629    3.5073    0.0000 C.3     1  UNL1        0.0877
     73 C          13.4821    2.5316    0.0000 C.3     1  UNL1        0.1160
     74 C          13.9983    4.1850    0.0000 C.3     1  UNL1       -0.0361
     75 C          14.6559    1.2580    0.0000 C.3     1  UNL1        0.1884
     76 C          15.5741    0.8618    0.0000 C.3     1  UNL1        0.1345
     77 C          15.4811   -0.1339    0.0000 C.3     1  UNL1        0.1206
     78 C          14.5054   -0.3531    0.0000 C.3     1  UNL1        0.1135
     79 C          14.1093   -1.2712    0.0000 C.3     1  UNL1        0.0730
     80 C          16.0353   -1.7748    0.0000 C.3     1  UNL1        0.1884
     81 C          16.7130   -2.5102    0.0000 C.3     1  UNL1        0.1387
     82 C          16.2231   -3.3819    0.0000 C.3     1  UNL1        0.1425
     83 C          15.2426   -3.1854    0.0000 C.3     1  UNL1        0.0843
     84 C          16.0265   -4.3624    0.0000 C.3     1  UNL1        0.0778
     85 H           7.6385   -1.2229    0.0000 H       1  UNL1        0.0315
     86 H           8.5314   -2.7802    0.0000 H       1  UNL1        0.0338
     87 H           9.2921   -0.8941    0.0000 H       1  UNL1        0.0296
     88 H           8.8824   -0.2090    0.0000 H       1  UNL1        0.0296
     89 H           9.2260   -1.5215    0.0000 H       1  UNL1        0.0596
     90 H           5.7398   -1.7748    0.0000 H       1  UNL1        0.0296
     91 H           5.3300   -2.4599    0.0000 H       1  UNL1        0.0296
     92 H           5.4251   -0.1931    0.0000 H       1  UNL1        0.0310
     93 H           5.8263   -0.8818    0.0000 H       1  UNL1        0.0310
     94 H           6.1502    1.8044    0.0000 H       1  UNL1        0.0357
     95 H           8.8791    0.6341    0.0000 H       1  UNL1        0.0274
     96 H           9.2836    1.3223    0.0000 H       1  UNL1        0.0274
     97 H           7.4046   -4.3009    0.0000 H       1  UNL1        0.0629
     98 H           8.8623   -0.7245    0.0000 H       1  UNL1        0.0235
     99 H           9.3624   -0.0043    0.0000 H       1  UNL1        0.0235
    100 H           8.6422    0.4959    0.0000 H       1  UNL1        0.0235
    101 H           5.3956   -3.1307    0.0000 H       1  UNL1        0.0619
    102 H           9.2868    2.1518    0.0000 H       1  UNL1        0.0276
    103 H           8.8876    2.8431    0.0000 H       1  UNL1        0.0276
    104 H           6.3400   -0.7976    0.0000 H       1  UNL1        0.0235
    105 H           5.4922   -1.0212    0.0000 H       1  UNL1        0.0235
    106 H           5.7158   -1.8690    0.0000 H       1  UNL1        0.0235
    107 H           5.4941    1.0095    0.0000 H       1  UNL1        0.0572
    108 H           8.6444   -0.0726    0.0000 H       1  UNL1        0.0238
    109 H           9.3607    0.4331    0.0000 H       1  UNL1        0.0238
    110 H           8.8550    1.1494    0.0000 H       1  UNL1        0.0238
    111 H           5.3095    2.8576    0.0000 H       1  UNL1        0.0276
    112 H           5.7246    2.1757    0.0000 H       1  UNL1        0.0276
    113 H           8.3869    3.7541    0.0000 H       1  UNL1        0.0276
    114 H           7.9877    4.4454    0.0000 H       1  UNL1        0.0276
    115 H           7.7303   -4.5245    0.0000 H       1  UNL1        0.0563
    116 H           8.4236   -4.9177    0.0000 H       1  UNL1        0.0563
    117 H           8.8094   -4.0581    0.0000 H       1  UNL1        0.0237
    118 H           9.4246   -3.4334    0.0000 H       1  UNL1        0.0237
    119 H           8.7998   -2.8182    0.0000 H       1  UNL1        0.0237
    120 H           7.2302    4.8789    0.0000 H       1  UNL1        0.0271
    121 H           6.4319    4.8728    0.0000 H       1  UNL1        0.0271
    122 H          10.0965   -2.0158    0.0000 H       1  UNL1        0.2098
    123 H           4.5251   -3.6250    0.0000 H       1  UNL1        0.2099
    124 H           4.8920    4.4526    0.0000 H       1  UNL1        0.0235
    125 H           4.2816    3.8231    0.0000 H       1  UNL1        0.0235
    126 H           5.9202    5.0245    0.0000 H       1  UNL1        0.0235
    127 H           5.0699    5.2384    0.0000 H       1  UNL1        0.0235
    128 H           4.8560    4.3881    0.0000 H       1  UNL1        0.0235
    129 H           4.9111    3.2128    0.0000 H       1  UNL1        0.0235
    130 H           6.0010   -4.8720    0.0000 H       1  UNL1        0.0938
    131 H           9.6254   -4.8348    0.0000 H       1  UNL1        0.2094
    132 H           6.0010   -7.1120    0.0000 H       1  UNL1        0.0671
    133 H           9.5207    4.1787    0.0000 H       1  UNL1        0.1085
    134 H           4.5981   -7.3020    0.0000 H       1  UNL1        0.0648
    135 H           4.2690   -4.8720    0.0000 H       1  UNL1        0.0647
    136 H           3.7320   -6.1820    0.0000 H       1  UNL1        0.0647
    137 H          10.9999    4.2478    0.0000 H       1  UNL1        0.0687
    138 H          11.3914    5.6760    0.0000 H       1  UNL1        0.0648
    139 H           6.8671   -7.6120    0.0000 H       1  UNL1        0.2101
    140 H          10.1540    6.4896    0.0000 H       1  UNL1        0.0647
    141 H           3.8015   -4.5170    0.0000 H       1  UNL1        0.0584
    142 H           3.0044   -4.5170    0.0000 H       1  UNL1        0.0584
    143 H           4.5981   -8.3020    0.0000 H       1  UNL1        0.2100
    144 H           3.4030   -7.6120    0.0000 H       1  UNL1        0.2100
    145 H          11.4639    6.5898    0.0000 H       1  UNL1        0.0584
    146 H          11.3714    7.3815    0.0000 H       1  UNL1        0.0584
    147 H          12.4140    5.5649    0.0000 H       1  UNL1        0.2100
    148 H          11.4371    3.7326    0.0000 H       1  UNL1        0.0938
    149 H           2.0000   -5.1820    0.0000 H       1  UNL1        0.2095
    150 H          11.2004    2.3367    0.0000 H       1  UNL1        0.0671
    151 H          10.5944    8.3020    0.0000 H       1  UNL1        0.2095
    152 H          12.2909    1.4338    0.0000 H       1  UNL1        0.0648
    153 H          13.1270    4.1122    0.0000 H       1  UNL1        0.0621
    154 H          13.6181    1.9267    0.0000 H       1  UNL1        0.0650
    155 H          11.1928    0.8694    0.0000 H       1  UNL1        0.2101
    156 H          14.4185    3.7291    0.0000 H       1  UNL1        0.0255
    157 H          14.4542    4.6052    0.0000 H       1  UNL1        0.0255
    158 H          13.5781    4.6409    0.0000 H       1  UNL1        0.0255
    159 H          12.5101    0.4581    0.0000 H       1  UNL1        0.2100
    160 H          15.1332    1.6537    0.0000 H       1  UNL1        0.0938
    161 H          16.0980    0.5302    0.0000 H       1  UNL1        0.0671
    162 H          15.3276   -0.7345    0.0000 H       1  UNL1        0.0651
    163 H          13.8867   -0.3927    0.0000 H       1  UNL1        0.0647
    164 H          16.9748    1.0680    0.0000 H       1  UNL1        0.2101
    165 H          14.0732   -1.8902    0.0000 H       1  UNL1        0.0584
    166 H          14.7125   -1.4143    0.0000 H       1  UNL1        0.0584
    167 H          15.5490   -1.3902    0.0000 H       1  UNL1        0.0938
    168 H          16.9285   -1.9288    0.0000 H       1  UNL1        0.0675
    169 H          12.8704   -1.9565    0.0000 H       1  UNL1        0.2095
    170 H          14.6226   -3.1925    0.0000 H       1  UNL1        0.0591
    171 H          15.1849   -3.8027    0.0000 H       1  UNL1        0.0591
    172 H          16.1199   -4.9754    0.0000 H       1  UNL1        0.0587
    173 H          16.6463   -4.3769    0.0000 H       1  UNL1        0.0587
    174 H          18.0765   -2.8915    0.0000 H       1  UNL1        0.2101
    175 H          17.1020   -4.4918    0.0000 H       1  UNL1        0.2105
    176 H          14.9572   -5.2903    0.0000 H       1  UNL1        0.2095
@<TRIPOS>BOND
     1    34     1    1
     2     1   122    1
     3    42     2    1
     4    58     2    1
     5    44     3    1
     6     3   123    1
     7     4    51    1
     8     4   131    1
     9     5    55    1
    10    60     5    1
    11     6    55    2
    12     7    58    1
    13     7    62    1
    14     8    60    1
    15     8    66    1
    16    59     9    1
    17     9   139    1
    18    61    10    1
    19    10   143    1
    20    64    11    1
    21    69    11    1
    22    63    12    1
    23    12   144    1
    24    65    13    1
    25    13   147    1
    26    14    67    1
    27    14   149    1
    28    15    68    1
    29    15   151    1
    30    16    69    1
    31    16    72    1
    32    70    17    1
    33    17   155    1
    34    71    18    1
    35    18   159    1
    36    73    19    1
    37    75    19    1
    38    20    75    1
    39    20    78    1
    40    76    21    1
    41    21   164    1
    42    77    22    1
    43    80    22    1
    44    23    79    1
    45    23   169    1
    46    24    80    1
    47    24    83    1
    48    81    25    1
    49    25   174    1
    50    82    26    1
    51    26   175    1
    52    27    84    1
    53    27   176    1
    54    28    30    1
    55    28    31    1
    56    28    33    1
    57    28    43    1
    58    29    30    1
    59    29    32    1
    60    29    37    1
    61    29    46    1
    62    30    38    1
    63    30    85    1
    64    31    36    1
    65    31    40    1
    66    31    48    1
    67    32    34    1
    68    32    35    1
    69    32    86    1
    70    33    34    1
    71    33    87    1
    72    33    88    1
    73    34    89    1
    74    35    42    1
    75    35    51    1
    76    35    53    1
    77    36    39    1
    78    36    47    2
    79    37    44    1
    80    37    90    1
    81    37    91    1
    82    38    47    1
    83    38    92    1
    84    38    93    1
    85    39    41    1
    86    39    49    1
    87    39    94    1
    88    40    45    1
    89    40    95    1
    90    40    96    1
    91    41    45    1
    92    41    50    1
    93    41    55    1
    94    42    44    1
    95    42    97    1
    96    43    98    1
    97    43    99    1
    98    43   100    1
    99    44   101    1
   100    45   102    1
   101    45   103    1
   102    46   104    1
   103    46   105    1
   104    46   106    1
   105    47   107    1
   106    48   108    1
   107    48   109    1
   108    48   110    1
   109    49    52    1
   110    49   111    1
   111    49   112    1
   112    50    54    1
   113    50   113    1
   114    50   114    1
   115    51   115    1
   116    51   116    1
   117    52    54    1
   118    52    56    1
   119    52    57    1
   120    53   117    1
   121    53   118    1
   122    53   119    1
   123    54   120    1
   124    54   121    1
   125    56   126    1
   126    56   127    1
   127    56   128    1
   128    57   124    1
   129    57   125    1
   130    57   129    1
   131    58    59    1
   132    58   130    1
   133    59    61    1
   134    59   132    1
   135    60    64    1
   136    60   133    1
   137    61    63    1
   138    61   134    1
   139    62    63    1
   140    62    67    1
   141    62   135    1
   142    63   136    1
   143    64    65    1
   144    64   137    1
   145    65    66    1
   146    65   138    1
   147    66    68    1
   148    66   140    1
   149    67   141    1
   150    67   142    1
   151    68   145    1
   152    68   146    1
   153    69    70    1
   154    69   148    1
   155    70    71    1
   156    70   150    1
   157    71    73    1
   158    71   152    1
   159    72    73    1
   160    72    74    1
   161    72   153    1
   162    73   154    1
   163    74   156    1
   164    74   157    1
   165    74   158    1
   166    75    76    1
   167    75   160    1
   168    76    77    1
   169    76   161    1
   170    77    78    1
   171    77   162    1
   172    78    79    1
   173    78   163    1
   174    79   165    1
   175    79   166    1
   176    80    81    1
   177    80   167    1
   178    81    82    1
   179    81   168    1
   180    82    83    1
   181    82    84    1
   182    83   170    1
   183    83   171    1
   184    84   172    1
   185    84   173    1
