@<TRIPOS>MOLECULE
IMPHY012391
 214 225 0 0 0
SMALL
GASTEIGER

@<TRIPOS>ATOM
      1 O           7.7510   -2.5091    0.0000 O.3     1  UNL1       -0.3449
      2 O           5.9972    6.7703    0.0000 O.3     1  UNL1       -0.4318
      3 O           5.1139    5.2804    0.0000 O.2     1  UNL1       -0.2501
      4 O           6.0189   -2.5091    0.0000 O.3     1  UNL1       -0.3405
      5 O           7.7510   -4.5091    0.0000 O.3     1  UNL1       -0.3378
      6 O           5.1486    8.2802    0.0000 O.3     1  UNL1       -0.3338
      7 O           6.0189   -5.5091    0.0000 O.3     1  UNL1       -0.3864
      8 O           4.2869   -4.5091    0.0000 O.3     1  UNL1       -0.3402
      9 O           4.2537    5.7904    0.0000 O.3     1  UNL1       -0.3829
     10 O           9.0778   -5.6224    0.0000 O.3     1  UNL1       -0.3401
     11 O           2.5333    6.8104    0.0000 O.3     1  UNL1       -0.3864
     12 O           4.2869   -1.5091    0.0000 O.3     1  UNL1       -0.3924
     13 O           2.5564    8.8103    0.0000 O.3     1  UNL1       -0.3866
     14 O           5.1529   -6.0091    0.0000 O.3     1  UNL1       -0.3461
     15 O           9.0366   -2.9770    0.0000 O.3     1  UNL1       -0.3841
     16 O          11.0062   -3.3243    0.0000 O.3     1  UNL1       -0.3400
     17 O          11.6902   -5.2037    0.0000 O.3     1  UNL1       -0.3865
     18 O           2.5548   -5.5091    0.0000 O.3     1  UNL1       -0.3841
     19 O          11.3895   -6.9094    0.0000 O.3     1  UNL1       -0.3686
     20 O           2.5548   -7.5091    0.0000 O.3     1  UNL1       -0.3864
     21 O           4.2869   -8.5091    0.0000 O.3     1  UNL1       -0.3869
     22 O           8.7770   -7.3282    0.0000 O.3     1  UNL1       -0.3865
     23 O          12.3330   -4.4376    0.0000 O.3     1  UNL1       -0.3405
     24 O           9.4611   -9.2076    0.0000 O.3     1  UNL1       -0.3865
     25 O          12.2918   -1.7922    0.0000 O.3     1  UNL1       -0.3378
     26 O          11.4307   -9.5548    0.0000 O.3     1  UNL1       -0.3869
     27 O          14.2614   -2.1395    0.0000 O.3     1  UNL1       -0.3864
     28 O          14.9454   -4.0189    0.0000 O.3     1  UNL1       -0.3865
     29 O          13.9194   -1.1998    0.0000 O.3     1  UNL1       -0.3431
     30 O          14.6446   -5.7246    0.0000 O.3     1  UNL1       -0.3924
     31 O          11.6077    0.0872    0.0000 O.3     1  UNL1       -0.3841
     32 O          12.8933    1.6193    0.0000 O.3     1  UNL1       -0.3864
     33 O          14.8629    1.2720    0.0000 O.3     1  UNL1       -0.3866
     34 C           6.8499    2.1911    0.0000 C.3     1  UNL1       -0.0194
     35 C           7.7140    1.6878    0.0000 C.3     1  UNL1       -0.0257
     36 C           7.7261    0.6462    0.0000 C.3     1  UNL1       -0.0250
     37 C           6.8538    3.1911    0.0000 C.3     1  UNL1       -0.0051
     38 C           6.8260    0.1219    0.0000 C.3     1  UNL1       -0.0278
     39 C           5.9380    1.6878    0.0000 C.3     1  UNL1       -0.0463
     40 C           6.8135   -0.9630    0.0000 C.3     1  UNL1       -0.0052
     41 C           5.9259    0.6462    0.0000 C.3     1  UNL1       -0.0486
     42 C           7.7217    3.6878    0.0000 C.2     1  UNL1       -0.0629
     43 C           8.5820    2.1844    0.0000 C.3     1  UNL1       -0.0306
     44 C           7.7418    4.7292    0.0000 C.3     1  UNL1       -0.0031
     45 C           8.6760    0.1219    0.0000 C.3     1  UNL1       -0.0447
     46 C           5.9457    3.7015    0.0000 C.3     1  UNL1       -0.0424
     47 C           6.8458    5.2604    0.0000 C.3     1  UNL1        0.0744
     48 C           5.8658    2.3686    0.0000 C.3     1  UNL1       -0.0585
     49 C           7.7510   -1.5091    0.0000 C.3     1  UNL1        0.0672
     50 C           5.9417    4.7431    0.0000 C.3     1  UNL1       -0.0359
     51 C           8.5902    1.1496    0.0000 C.3     1  UNL1       -0.0590
     52 C           8.6885   -0.9630    0.0000 C.3     1  UNL1       -0.0255
     53 C           8.5858    3.1844    0.0000 C.2     1  UNL1       -0.0836
     54 C           5.8683    3.0213    0.0000 C.3     1  UNL1       -0.0553
     55 C           8.6957    5.2462    0.0000 C.3     1  UNL1       -0.0403
     56 C           6.8416    6.3454    0.0000 C.3     1  UNL1       -0.0362
     57 C           8.7166    6.3310    0.0000 C.3     1  UNL1       -0.0343
     58 C           5.8135   -0.9553    0.0000 C.3     1  UNL1       -0.0572
     59 C           6.3068   -1.8251    0.0000 C.3     1  UNL1       -0.0572
     60 C           7.7833    6.8843    0.0000 C.3     1  UNL1       -0.0468
     61 C           5.9856    5.7704    0.0000 C.2     1  UNL1        0.3161
     62 C           9.2299    7.1892    0.0000 C.3     1  UNL1       -0.0598
     63 C           9.7165    6.3155    0.0000 C.3     1  UNL1       -0.0598
     64 C           6.8850   -3.0091    0.0000 C.3     1  UNL1        0.1886
     65 C           6.8850   -4.0091    0.0000 C.3     1  UNL1        0.1406
     66 C           5.1370    7.2803    0.0000 C.3     1  UNL1        0.2337
     67 C           6.0189   -4.5091    0.0000 C.3     1  UNL1        0.1148
     68 C           5.1529   -3.0091    0.0000 C.3     1  UNL1        0.1134
     69 C           5.1529   -4.0091    0.0000 C.3     1  UNL1        0.1184
     70 C           4.2652    6.7904    0.0000 C.3     1  UNL1        0.1455
     71 C           3.4051    7.3004    0.0000 C.3     1  UNL1        0.1151
     72 C           4.2869   -2.5091    0.0000 C.3     1  UNL1        0.0730
     73 C           4.2884    8.7902    0.0000 C.3     1  UNL1        0.0883
     74 C           8.7358   -4.6827    0.0000 C.3     1  UNL1        0.1886
     75 C           3.4166    8.3003    0.0000 C.3     1  UNL1        0.1096
     76 C           9.3786   -3.9167    0.0000 C.3     1  UNL1        0.1345
     77 C           4.2869   -5.5091    0.0000 C.3     1  UNL1        0.1880
     78 C           4.2999    9.7902    0.0000 C.3     1  UNL1       -0.0360
     79 C          10.3634   -4.0904    0.0000 C.3     1  UNL1        0.1206
     80 C          10.0626   -5.7961    0.0000 C.3     1  UNL1        0.1186
     81 C          10.7054   -5.0300    0.0000 C.3     1  UNL1        0.1126
     82 C           3.4209   -6.0091    0.0000 C.3     1  UNL1        0.1341
     83 C          10.4046   -6.7358    0.0000 C.3     1  UNL1        0.1157
     84 C           3.4209   -7.0091    0.0000 C.3     1  UNL1        0.1137
     85 C           5.1529   -7.0091    0.0000 C.3     1  UNL1        0.0792
     86 C           4.2869   -7.5091    0.0000 C.3     1  UNL1        0.1069
     87 C           9.7619   -7.5018    0.0000 C.3     1  UNL1        0.1121
     88 C          11.9910   -3.4980    0.0000 C.3     1  UNL1        0.1888
     89 C          10.1039   -8.4415    0.0000 C.3     1  UNL1        0.1115
     90 C          11.7315   -7.8491    0.0000 C.3     1  UNL1        0.0767
     91 C          11.0887   -8.6152    0.0000 C.3     1  UNL1        0.1068
     92 C          12.6338   -2.7319    0.0000 C.3     1  UNL1        0.1406
     93 C          13.6186   -2.9056    0.0000 C.3     1  UNL1        0.1144
     94 C          13.3178   -4.6113    0.0000 C.3     1  UNL1        0.1130
     95 C          13.9606   -3.8452    0.0000 C.3     1  UNL1        0.1119
     96 C          13.6598   -5.5510    0.0000 C.3     1  UNL1        0.0730
     97 C          12.9345   -1.0262    0.0000 C.3     1  UNL1        0.1884
     98 C          12.5925   -0.0865    0.0000 C.3     1  UNL1        0.1341
     99 C          13.2353    0.6796    0.0000 C.3     1  UNL1        0.1140
    100 C          14.5621   -0.4338    0.0000 C.3     1  UNL1        0.0873
    101 C          14.2201    0.5059    0.0000 C.3     1  UNL1        0.1095
    102 C          15.5469   -0.6074    0.0000 C.3     1  UNL1       -0.0361
    103 H           8.2522    1.3799    0.0000 H       1  UNL1        0.0315
    104 H           6.2867   -0.1839    0.0000 H       1  UNL1        0.0312
    105 H           5.7357    2.2739    0.0000 H       1  UNL1        0.0271
    106 H           5.3259    1.5888    0.0000 H       1  UNL1        0.0271
    107 H           5.3164    0.7594    0.0000 H       1  UNL1        0.0268
    108 H           5.7101    0.0650    0.0000 H       1  UNL1        0.0268
    109 H           8.7918    1.6010    0.0000 H       1  UNL1        0.0310
    110 H           9.1930    2.2898    0.0000 H       1  UNL1        0.0310
    111 H           8.2714    4.4069    0.0000 H       1  UNL1        0.0357
    112 H           9.2880    0.0229    0.0000 H       1  UNL1        0.0271
    113 H           8.8783    0.7080    0.0000 H       1  UNL1        0.0271
    114 H           5.3345    3.8052    0.0000 H       1  UNL1        0.0274
    115 H           5.7389    3.1170    0.0000 H       1  UNL1        0.0274
    116 H           5.9758    2.9787    0.0000 H       1  UNL1        0.0235
    117 H           5.2556    2.4786    0.0000 H       1  UNL1        0.0235
    118 H           5.7558    1.7584    0.0000 H       1  UNL1        0.0235
    119 H           8.2885   -1.8181    0.0000 H       1  UNL1        0.0602
    120 H           5.7304    5.3260    0.0000 H       1  UNL1        0.0276
    121 H           5.3313    4.6346    0.0000 H       1  UNL1        0.0276
    122 H           8.9022    0.6138    0.0000 H       1  UNL1        0.0235
    123 H           9.1259    1.4616    0.0000 H       1  UNL1        0.0235
    124 H           8.2781    1.6853    0.0000 H       1  UNL1        0.0235
    125 H           8.9043   -1.5442    0.0000 H       1  UNL1        0.0290
    126 H           9.2981   -0.8498    0.0000 H       1  UNL1        0.0290
    127 H           9.1240    3.4924    0.0000 H       1  UNL1        0.0572
    128 H           5.7630    3.6323    0.0000 H       1  UNL1        0.0238
    129 H           5.2573    2.9160    0.0000 H       1  UNL1        0.0238
    130 H           5.9736    2.4103    0.0000 H       1  UNL1        0.0238
    131 H           8.8935    4.6586    0.0000 H       1  UNL1        0.0276
    132 H           9.3085    5.3405    0.0000 H       1  UNL1        0.0276
    133 H           6.6303    6.9283    0.0000 H       1  UNL1        0.0276
    134 H           6.2312    6.2370    0.0000 H       1  UNL1        0.0276
    135 H           5.8183   -0.3353    0.0000 H       1  UNL1        0.0236
    136 H           5.1935   -0.9505    0.0000 H       1  UNL1        0.0236
    137 H           5.8087   -1.5752    0.0000 H       1  UNL1        0.0236
    138 H           5.7723   -1.5110    0.0000 H       1  UNL1        0.0236
    139 H           5.9927   -2.3597    0.0000 H       1  UNL1        0.0236
    140 H           6.8413   -2.1393    0.0000 H       1  UNL1        0.0236
    141 H           8.1861    7.3556    0.0000 H       1  UNL1        0.0271
    142 H           7.3879    7.3618    0.0000 H       1  UNL1        0.0271
    143 H           9.7620    6.8709    0.0000 H       1  UNL1        0.0235
    144 H           9.5482    7.7213    0.0000 H       1  UNL1        0.0235
    145 H           8.6978    7.5074    0.0000 H       1  UNL1        0.0235
    146 H           9.7070    5.6956    0.0000 H       1  UNL1        0.0235
    147 H          10.3364    6.3060    0.0000 H       1  UNL1        0.0235
    148 H           9.7261    6.9355    0.0000 H       1  UNL1        0.0235
    149 H           6.8850   -2.3891    0.0000 H       1  UNL1        0.0938
    150 H           6.8850   -4.6291    0.0000 H       1  UNL1        0.0675
    151 H           5.1298    6.6604    0.0000 H       1  UNL1        0.1085
    152 H           5.4820   -4.8191    0.0000 H       1  UNL1        0.0648
    153 H           5.1529   -2.3891    0.0000 H       1  UNL1        0.0647
    154 H           5.1529   -4.6291    0.0000 H       1  UNL1        0.0651
    155 H           3.7248    6.4866    0.0000 H       1  UNL1        0.0683
    156 H           2.8718    7.6165    0.0000 H       1  UNL1        0.0648
    157 H           3.6763   -2.4014    0.0000 H       1  UNL1        0.0584
    158 H           4.0748   -3.0917    0.0000 H       1  UNL1        0.0584
    159 H           4.8289    9.0940    0.0000 H       1  UNL1        0.0621
    160 H           8.3373   -5.1577    0.0000 H       1  UNL1        0.0938
    161 H           3.4238    8.9202    0.0000 H       1  UNL1        0.0646
    162 H           6.5559   -5.8191    0.0000 H       1  UNL1        0.2100
    163 H           3.7132    5.4867    0.0000 H       1  UNL1        0.2102
    164 H           8.7680   -3.8090    0.0000 H       1  UNL1        0.0671
    165 H           3.7500   -5.1991    0.0000 H       1  UNL1        0.0937
    166 H           4.9199    9.7830    0.0000 H       1  UNL1        0.0255
    167 H           4.3071   10.4101    0.0000 H       1  UNL1        0.0255
    168 H           3.6800    9.7973    0.0000 H       1  UNL1        0.0255
    169 H           2.0000    7.1266    0.0000 H       1  UNL1        0.2100
    170 H          10.9740   -4.1980    0.0000 H       1  UNL1        0.0651
    171 H           3.7500   -1.1991    0.0000 H       1  UNL1        0.2095
    172 H           9.6641   -6.2710    0.0000 H       1  UNL1        0.0651
    173 H           2.5636    9.4302    0.0000 H       1  UNL1        0.2100
    174 H          10.9175   -5.6126    0.0000 H       1  UNL1        0.0647
    175 H           2.8839   -6.3191    0.0000 H       1  UNL1        0.0671
    176 H          10.8032   -6.2608    0.0000 H       1  UNL1        0.0650
    177 H           8.4260   -2.8693    0.0000 H       1  UNL1        0.2101
    178 H           3.9578   -6.6991    0.0000 H       1  UNL1        0.0647
    179 H           5.3650   -7.5917    0.0000 H       1  UNL1        0.0587
    180 H           5.7635   -6.9014    0.0000 H       1  UNL1        0.0587
    181 H           3.7500   -7.8191    0.0000 H       1  UNL1        0.0643
    182 H           9.5498   -6.9192    0.0000 H       1  UNL1        0.0647
    183 H          11.9023   -5.7863    0.0000 H       1  UNL1        0.2100
    184 H           2.0179   -5.8191    0.0000 H       1  UNL1        0.2101
    185 H          11.7789   -2.9153    0.0000 H       1  UNL1        0.0938
    186 H          10.3159   -9.0241    0.0000 H       1  UNL1        0.0647
    187 H           2.5548   -8.1291    0.0000 H       1  UNL1        0.2100
    188 H          12.1300   -8.3241    0.0000 H       1  UNL1        0.0586
    189 H          12.2684   -7.5391    0.0000 H       1  UNL1        0.0586
    190 H          11.6993   -8.7228    0.0000 H       1  UNL1        0.0643
    191 H          13.0323   -2.2570    0.0000 H       1  UNL1        0.0675
    192 H           4.8238   -8.8191    0.0000 H       1  UNL1        0.2100
    193 H           8.3785   -7.8031    0.0000 H       1  UNL1        0.2100
    194 H          13.4065   -2.3230    0.0000 H       1  UNL1        0.0648
    195 H          12.9193   -5.0862    0.0000 H       1  UNL1        0.0647
    196 H          14.3591   -3.3703    0.0000 H       1  UNL1        0.0647
    197 H           9.6731   -9.7902    0.0000 H       1  UNL1        0.2100
    198 H          12.0413   -9.6625    0.0000 H       1  UNL1        0.2100
    199 H          13.0493   -5.6586    0.0000 H       1  UNL1        0.0584
    200 H          13.6598   -6.1710    0.0000 H       1  UNL1        0.0584
    201 H          12.3240   -0.9185    0.0000 H       1  UNL1        0.0938
    202 H          14.8720   -2.2472    0.0000 H       1  UNL1        0.2100
    203 H          15.1575   -4.6015    0.0000 H       1  UNL1        0.2100
    204 H          12.3805    0.4961    0.0000 H       1  UNL1        0.0671
    205 H          14.8567   -6.3072    0.0000 H       1  UNL1        0.2095
    206 H          13.6338    1.1545    0.0000 H       1  UNL1        0.0648
    207 H          14.7742   -1.0164    0.0000 H       1  UNL1        0.0621
    208 H          14.8307    0.3983    0.0000 H       1  UNL1        0.0646
    209 H          11.3957    0.6698    0.0000 H       1  UNL1        0.2101
    210 H          15.4393   -1.2180    0.0000 H       1  UNL1        0.0255
    211 H          16.1575   -0.7151    0.0000 H       1  UNL1        0.0255
    212 H          15.6546    0.0032    0.0000 H       1  UNL1        0.0255
    213 H          13.2918    2.0942    0.0000 H       1  UNL1        0.2100
    214 H          15.4735    1.1643    0.0000 H       1  UNL1        0.2100
@<TRIPOS>BOND
     1     1    49    1
     2     1    64    1
     3     2    61    1
     4     2    66    1
     5     3    61    2
     6     4    64    1
     7     4    68    1
     8     5    65    1
     9     5    74    1
    10     6    66    1
    11     6    73    1
    12     7    67    1
    13     7   162    1
    14     8    69    1
    15     8    77    1
    16     9    70    1
    17     9   163    1
    18    10    74    1
    19    10    80    1
    20    11    71    1
    21    11   169    1
    22    12    72    1
    23    12   171    1
    24    13    75    1
    25    13   173    1
    26    14    77    1
    27    14    85    1
    28    15    76    1
    29    15   177    1
    30    16    79    1
    31    16    88    1
    32    17    81    1
    33    17   183    1
    34    18    82    1
    35    18   184    1
    36    19    83    1
    37    19    90    1
    38    20    84    1
    39    20   187    1
    40    21    86    1
    41    21   192    1
    42    22    87    1
    43    22   193    1
    44    23    88    1
    45    23    94    1
    46    24    89    1
    47    24   197    1
    48    25    92    1
    49    25    97    1
    50    26    91    1
    51    26   198    1
    52    27    93    1
    53    27   202    1
    54    28    95    1
    55    28   203    1
    56    29    97    1
    57    29   100    1
    58    30    96    1
    59    30   205    1
    60    31    98    1
    61    31   209    1
    62    32    99    1
    63    32   213    1
    64    33   101    1
    65    33   214    1
    66    34    35    1
    67    34    37    1
    68    34    39    1
    69    34    48    1
    70    35    36    1
    71    35    43    1
    72    35   103    1
    73    36    38    1
    74    36    45    1
    75    36    51    1
    76    37    42    1
    77    37    46    1
    78    37    54    1
    79    38    40    1
    80    38    41    1
    81    38   104    1
    82    39    41    1
    83    39   105    1
    84    39   106    1
    85    40    49    1
    86    40    58    1
    87    40    59    1
    88    41   107    1
    89    41   108    1
    90    42    44    1
    91    42    53    2
    92    43    53    1
    93    43   109    1
    94    43   110    1
    95    44    47    1
    96    44    55    1
    97    44   111    1
    98    45    52    1
    99    45   112    1
   100    45   113    1
   101    46    50    1
   102    46   114    1
   103    46   115    1
   104    47    50    1
   105    47    56    1
   106    47    61    1
   107    48   116    1
   108    48   117    1
   109    48   118    1
   110    49    52    1
   111    49   119    1
   112    50   120    1
   113    50   121    1
   114    51   122    1
   115    51   123    1
   116    51   124    1
   117    52   125    1
   118    52   126    1
   119    53   127    1
   120    54   128    1
   121    54   129    1
   122    54   130    1
   123    55    57    1
   124    55   131    1
   125    55   132    1
   126    56    60    1
   127    56   133    1
   128    56   134    1
   129    57    60    1
   130    57    62    1
   131    57    63    1
   132    58   135    1
   133    58   136    1
   134    58   137    1
   135    59   138    1
   136    59   139    1
   137    59   140    1
   138    60   141    1
   139    60   142    1
   140    62   143    1
   141    62   144    1
   142    62   145    1
   143    63   146    1
   144    63   147    1
   145    63   148    1
   146    64    65    1
   147    64   149    1
   148    65    67    1
   149    65   150    1
   150    66    70    1
   151    66   151    1
   152    67    69    1
   153    67   152    1
   154    68    69    1
   155    68    72    1
   156    68   153    1
   157    69   154    1
   158    70    71    1
   159    70   155    1
   160    71    75    1
   161    71   156    1
   162    72   157    1
   163    72   158    1
   164    73    75    1
   165    73    78    1
   166    73   159    1
   167    74    76    1
   168    74   160    1
   169    75   161    1
   170    76    79    1
   171    76   164    1
   172    77    82    1
   173    77   165    1
   174    78   166    1
   175    78   167    1
   176    78   168    1
   177    79    81    1
   178    79   170    1
   179    80    81    1
   180    80    83    1
   181    80   172    1
   182    81   174    1
   183    82    84    1
   184    82   175    1
   185    83    87    1
   186    83   176    1
   187    84    86    1
   188    84   178    1
   189    85    86    1
   190    85   179    1
   191    85   180    1
   192    86   181    1
   193    87    89    1
   194    87   182    1
   195    88    92    1
   196    88   185    1
   197    89    91    1
   198    89   186    1
   199    90    91    1
   200    90   188    1
   201    90   189    1
   202    91   190    1
   203    92    93    1
   204    92   191    1
   205    93    95    1
   206    93   194    1
   207    94    95    1
   208    94    96    1
   209    94   195    1
   210    95   196    1
   211    96   199    1
   212    96   200    1
   213    97    98    1
   214    97   201    1
   215    98    99    1
   216    98   204    1
   217    99   101    1
   218    99   206    1
   219   100   101    1
   220   100   102    1
   221   100   207    1
   222   101   208    1
   223   102   210    1
   224   102   211    1
   225   102   212    1
