@<TRIPOS>MOLECULE
IMPHY009526
 53 56 0 0 0
SMALL
GASTEIGER

@<TRIPOS>ATOM
      1 O           7.7331   -1.0357    0.0000 O.3     1  UNL1       -0.3326
      2 O           6.2242   -3.3017    0.0000 O.3     1  UNL1       -0.3858
      3 O           7.7331   -4.0357    0.0000 O.3     1  UNL1       -0.3864
      4 O           9.4651   -3.0357    0.0000 O.3     1  UNL1       -0.3841
      5 O           9.4651   -1.0357    0.0000 O.3     1  UNL1       -0.3649
      6 O           5.6591   -2.9754    0.0000 O.3     1  UNL1       -0.3917
      7 O           6.0010    0.9643    0.0000 O.2     1  UNL1       -0.4540
      8 O           8.5991   -0.5357    0.0000 O.2     1  UNL1       -0.2865
      9 O           9.5033    0.9612    0.0000 O.3     1  UNL1       -0.5058
     10 O           7.7452    4.0336    0.0000 O.3     1  UNL1       -0.5065
     11 O           4.2690   -3.0357    0.0000 O.3     1  UNL1       -0.5033
     12 O           2.5369   -2.0357    0.0000 O.3     1  UNL1       -0.5033
     13 C           6.8671   -1.5357    0.0000 C.3     1  UNL1        0.1554
     14 C           6.8671   -2.5357    0.0000 C.3     1  UNL1        0.1191
     15 C           7.7331   -3.0357    0.0000 C.3     1  UNL1        0.1147
     16 C           8.5991   -2.5357    0.0000 C.3     1  UNL1        0.1340
     17 C           8.5991   -1.5357    0.0000 C.3     1  UNL1        0.1862
     18 C           6.8671   -0.5357    0.0000 C.ar    1  UNL1        0.0793
     19 C           6.0010   -2.0357    0.0000 C.3     1  UNL1        0.0803
     20 C           6.0010   -0.0357    0.0000 C.ar    1  UNL1        0.1454
     21 C           7.7331   -0.0357    0.0000 C.ar    1  UNL1        0.2027
     22 C           7.7331    0.9643    0.0000 C.ar    1  UNL1        0.1058
     23 C           5.1350   -0.5357    0.0000 C.ar    1  UNL1        0.0214
     24 C           6.8671    1.4643    0.0000 C.ar    1  UNL1        0.1463
     25 C           8.6431    1.4712    0.0000 C.ar    1  UNL1        0.1347
     26 C           6.8510    2.5058    0.0000 C.ar    1  UNL1        0.0231
     27 C           5.1350   -1.5357    0.0000 C.ar    1  UNL1       -0.0059
     28 C           4.2690   -0.0357    0.0000 C.ar    1  UNL1       -0.0474
     29 C           8.6511    2.5128    0.0000 C.ar    1  UNL1        0.0223
     30 C           7.7490    3.0336    0.0000 C.ar    1  UNL1        0.1239
     31 C           4.2690   -2.0357    0.0000 C.ar    1  UNL1        0.1589
     32 C           3.4030   -0.5357    0.0000 C.ar    1  UNL1       -0.0159
     33 C           3.4030   -1.5357    0.0000 C.ar    1  UNL1        0.1583
     34 H           7.4040   -2.2257    0.0000 H       1  UNL1        0.0653
     35 H           7.1962   -3.3457    0.0000 H       1  UNL1        0.0648
     36 H           8.5991   -3.1557    0.0000 H       1  UNL1        0.0671
     37 H           8.5991   -0.9157    0.0000 H       1  UNL1        0.0936
     38 H           5.8580   -1.4324    0.0000 H       1  UNL1        0.0590
     39 H           5.3821   -1.9996    0.0000 H       1  UNL1        0.0590
     40 H           6.4363   -3.8843    0.0000 H       1  UNL1        0.2100
     41 H           8.2700   -4.3457    0.0000 H       1  UNL1        0.2100
     42 H           9.4651   -3.6557    0.0000 H       1  UNL1        0.2101
     43 H          10.0021   -1.3457    0.0000 H       1  UNL1        0.2126
     44 H           5.0485   -3.0830    0.0000 H       1  UNL1        0.2095
     45 H           6.3105    2.8096    0.0000 H       1  UNL1        0.0691
     46 H           5.6720   -1.8457    0.0000 H       1  UNL1        0.0662
     47 H           4.2690    0.5843    0.0000 H       1  UNL1        0.0626
     48 H           9.1892    2.8207    0.0000 H       1  UNL1        0.0691
     49 H           2.8660   -0.2257    0.0000 H       1  UNL1        0.0655
     50 H          10.0438    1.2650    0.0000 H       1  UNL1        0.2922
     51 H           8.2809    4.3457    0.0000 H       1  UNL1        0.2921
     52 H           3.7320   -3.3457    0.0000 H       1  UNL1        0.2923
     53 H           2.0000   -1.7257    0.0000 H       1  UNL1        0.2923
@<TRIPOS>BOND
     1     1    13    1
     2     1    17    1
     3    14     2    1
     4     2    40    1
     5    15     3    1
     6     3    41    1
     7    16     4    1
     8     4    42    1
     9     5    17    1
    10     5    43    1
    11     6    19    1
    12     6    44    1
    13     7    20   ar
    14     7    24   ar
    15     8    21    2
    16     9    25    1
    17     9    50    1
    18    10    30    1
    19    10    51    1
    20    11    31    1
    21    11    52    1
    22    12    33    1
    23    12    53    1
    24    13    14    1
    25    13    18    1
    26    13    19    1
    27    14    15    1
    28    14    34    1
    29    15    16    1
    30    15    35    1
    31    16    17    1
    32    16    36    1
    33    17    37    1
    34    18    20   ar
    35    18    21   ar
    36    19    38    1
    37    19    39    1
    38    20    23    1
    39    21    22   ar
    40    22    24   ar
    41    22    25   ar
    42    23    27   ar
    43    23    28   ar
    44    24    26   ar
    45    25    29   ar
    46    26    30   ar
    47    26    45    1
    48    27    31   ar
    49    27    46    1
    50    28    32   ar
    51    28    47    1
    52    29    30   ar
    53    29    48    1
    54    31    33   ar
    55    32    33   ar
    56    32    49    1
