@<TRIPOS>MOLECULE
IMPHY016306
 22 22 0 0 0
SMALL
GASTEIGER

@<TRIPOS>ATOM
      1 O           2.8660    1.0000    0.0000 O.3     1  UNL1       -0.4943
      2 O           4.5981   -2.0000    0.0000 O.3     1  UNL1       -0.4950
      3 O           5.4641    2.5000    0.0000 O.2     1  UNL1       -0.2956
      4 C           3.7320    0.5000    0.0000 C.ar    1  UNL1        0.1337
      5 C           4.5981    1.0000    0.0000 C.ar    1  UNL1        0.0560
      6 C           4.5981   -1.0000    0.0000 C.ar    1  UNL1        0.1236
      7 C           3.7320   -0.5000    0.0000 C.ar    1  UNL1        0.0224
      8 C           5.4641    0.5000    0.0000 C.ar    1  UNL1       -0.0446
      9 C           5.4641   -0.5000    0.0000 C.ar    1  UNL1       -0.0191
     10 C           4.5981    2.0000    0.0000 C.2     1  UNL1        0.1537
     11 C           2.0000    0.5000    0.0000 C.3     1  UNL1        0.0788
     12 C           5.4641   -2.5000    0.0000 C.3     1  UNL1        0.0788
     13 H           3.1951   -0.8100    0.0000 H       1  UNL1        0.0691
     14 H           6.0010    0.8100    0.0000 H       1  UNL1        0.0627
     15 H           6.0010   -0.8100    0.0000 H       1  UNL1        0.0654
     16 H           4.0611    2.3100    0.0000 H       1  UNL1        0.1083
     17 H           1.6900    1.0369    0.0000 H       1  UNL1        0.0660
     18 H           1.4631    0.1900    0.0000 H       1  UNL1        0.0660
     19 H           2.3100   -0.0369    0.0000 H       1  UNL1        0.0660
     20 H           5.1541   -3.0369    0.0000 H       1  UNL1        0.0660
     21 H           6.0010   -2.8100    0.0000 H       1  UNL1        0.0660
     22 H           5.7741   -1.9631    0.0000 H       1  UNL1        0.0660
@<TRIPOS>BOND
     1     1     4    1
     2     1    11    1
     3     2     6    1
     4     2    12    1
     5     3    10    2
     6     4     5   ar
     7     4     7   ar
     8     5     8   ar
     9     5    10    1
    10     6     7   ar
    11     6     9   ar
    12     7    13    1
    13     8     9   ar
    14     8    14    1
    15     9    15    1
    16    10    16    1
    17    11    17    1
    18    11    18    1
    19    11    19    1
    20    12    20    1
    21    12    21    1
    22    12    22    1
