@<TRIPOS>MOLECULE
IMPHY006484
 26 28 0 0 0
SMALL
GASTEIGER

@<TRIPOS>ATOM
      1 O           5.9721    1.8290    0.0000 O.2     1  UNL1       -0.2907
      2 N           4.5274    0.4946    0.0000 N.ar    1  UNL1       -0.3524
      3 N           7.0547   -0.6296    0.0000 N.ar    1  UNL1       -0.2500
      4 C           5.0274   -1.0442    0.0000 C.ar    1  UNL1        0.0110
      5 C           4.0274   -1.0442    0.0000 C.ar    1  UNL1        0.0075
      6 C           5.3364   -0.0932    0.0000 C.ar    1  UNL1        0.0767
      7 C           3.7183   -0.0932    0.0000 C.ar    1  UNL1        0.0475
      8 C           6.3518    0.1391    0.0000 C.ar    1  UNL1        0.1296
      9 C           5.7123   -1.8290    0.0000 C.ar    1  UNL1       -0.0338
     10 C           3.3424   -1.8290    0.0000 C.ar    1  UNL1       -0.0520
     11 C           2.7029    0.1391    0.0000 C.ar    1  UNL1       -0.0378
     12 C           2.3219   -1.6203    0.0000 C.ar    1  UNL1       -0.0611
     13 C           2.0000   -0.6296    0.0000 C.ar    1  UNL1       -0.0598
     14 C           6.7328   -1.6203    0.0000 C.ar    1  UNL1        0.0291
     15 C           6.6498    1.0936    0.0000 C.2     1  UNL1        0.1802
     16 C           7.6255    1.3128    0.0000 C.3     1  UNL1        0.0002
     17 H           4.5274    1.1146    0.0000 H       1  UNL1        0.1660
     18 H           5.5139   -2.4164    0.0000 H       1  UNL1        0.0639
     19 H           3.5408   -2.4164    0.0000 H       1  UNL1        0.0624
     20 H           2.5182    0.7309    0.0000 H       1  UNL1        0.0638
     21 H           1.9088   -2.0826    0.0000 H       1  UNL1        0.0618
     22 H           7.1459   -2.0826    0.0000 H       1  UNL1        0.0830
     23 H           1.3940   -0.4984    0.0000 H       1  UNL1        0.0618
     24 H           7.7614    0.7079    0.0000 H       1  UNL1        0.0310
     25 H           8.2304    1.4487    0.0000 H       1  UNL1        0.0310
     26 H           7.4896    1.9178    0.0000 H       1  UNL1        0.0310
@<TRIPOS>BOND
     1     1    15    2
     2     2     6   ar
     3     2     7   ar
     4     2    17    1
     5     3     8   ar
     6     3    14   ar
     7     4     5   ar
     8     4     6   ar
     9     4     9   ar
    10     5     7   ar
    11     5    10   ar
    12     6     8   ar
    13     7    11   ar
    14     8    15    1
    15     9    14   ar
    16     9    18    1
    17    10    12   ar
    18    10    19    1
    19    11    13   ar
    20    11    20    1
    21    12    13   ar
    22    12    21    1
    23    13    23    1
    24    14    22    1
    25    15    16    1
    26    16    24    1
    27    16    25    1
    28    16    26    1
