@<TRIPOS>MOLECULE
IMPHY009135
 98 103 0 0 0
SMALL
GASTEIGER

@<TRIPOS>ATOM
      1 O           5.7393   -0.2206    0.0000 O.3     1  UNL1       -0.3330
      2 O           6.3788   -1.2607    0.0000 O.3     1  UNL1       -0.3636
      3 O           5.1403   -1.4096    0.0000 O.3     1  UNL1       -0.4573
      4 O           8.9376   -1.8835    0.0000 O.3     1  UNL1       -0.4600
      5 O           2.8641    2.2720    0.0000 O.3     1  UNL1       -0.4525
      6 O           9.9485    2.6582    0.0000 O.3     1  UNL1       -0.4679
      7 O          10.1480    0.9377    0.0000 O.2     1  UNL1       -0.2509
      8 O           2.0000    0.7271    0.0000 O.2     1  UNL1       -0.2456
      9 O           6.3216   -2.6762    0.0000 O.2     1  UNL1       -0.2505
     10 O           7.5316   -2.8950    0.0000 O.2     1  UNL1       -0.2505
     11 O           3.2996    5.3303    0.0000 O.2     1  UNL1       -0.4706
     12 C           7.1332    0.5841    0.0000 C.3     1  UNL1        0.0320
     13 C           5.5301    0.7512    0.0000 C.3     1  UNL1        0.1355
     14 C           6.7280   -0.3237    0.0000 C.3     1  UNL1        0.1843
     15 C           6.3961    1.2512    0.0000 C.3     1  UNL1        0.0063
     16 C           7.3230   -1.1712    0.0000 C.3     1  UNL1        0.0909
     17 C           5.8716   -0.7275    0.0000 C.3     1  UNL1        0.1472
     18 C           8.1613    0.7073    0.0000 C.3     1  UNL1       -0.0118
     19 C           8.7756   -0.1262    0.0000 C.3     1  UNL1        0.0067
     20 C           8.3536   -1.0718    0.0000 C.3     1  UNL1        0.1197
     21 C           6.3961    2.2512    0.0000 C.3     1  UNL1       -0.0456
     22 C           4.6641    1.2512    0.0000 C.2     1  UNL1       -0.0178
     23 C           4.6641    2.2512    0.0000 C.3     1  UNL1        0.0336
     24 C           7.5407    1.4973    0.0000 C.3     1  UNL1       -0.0540
     25 C           5.5301    2.7512    0.0000 C.3     1  UNL1       -0.0397
     26 C           8.5582    1.6252    0.0000 C.3     1  UNL1        0.0490
     27 C           9.6904   -0.5302    0.0000 C.3     1  UNL1       -0.0561
     28 C           9.5829    0.4640    0.0000 C.3     1  UNL1       -0.0561
     29 C           3.7702    2.7859    0.0000 C.3     1  UNL1        0.1403
     30 C           3.7702    0.7166    0.0000 C.2     1  UNL1        0.0252
     31 C           4.6641    3.2512    0.0000 C.3     1  UNL1       -0.0520
     32 C           9.5516    1.7404    0.0000 C.2     1  UNL1        0.3071
     33 C           2.8641    1.2304    0.0000 C.2     1  UNL1        0.3326
     34 C           5.3653   -2.3839    0.0000 C.2     1  UNL1        0.3103
     35 C           3.7817    3.7858    0.0000 C.ar    1  UNL1        0.0313
     36 C           8.5266   -2.7952    0.0000 C.2     1  UNL1        0.3102
     37 C           4.6340   -3.0660    0.0000 C.3     1  UNL1        0.0534
     38 C           9.1105   -3.6069    0.0000 C.3     1  UNL1        0.0534
     39 C           4.5975    4.3642    0.0000 C.ar    1  UNL1       -0.0172
     40 C           2.9796    4.3829    0.0000 C.ar    1  UNL1        0.0984
     41 C           4.8590   -4.0403    0.0000 C.3     1  UNL1       -0.0432
     42 C           3.6776   -2.7736    0.0000 C.3     1  UNL1       -0.0523
     43 C           8.6995   -4.5186    0.0000 C.3     1  UNL1       -0.0432
     44 C           4.2995    5.3188    0.0000 C.ar    1  UNL1        0.0921
     45 C          10.1055   -3.5071    0.0000 C.3     1  UNL1       -0.0523
     46 C          10.9418    2.7734    0.0000 C.3     1  UNL1        0.0817
     47 C           4.1276   -4.7223    0.0000 C.3     1  UNL1       -0.0645
     48 C           9.2834   -5.3303    0.0000 C.3     1  UNL1       -0.0645
     49 H           6.9629    1.5027    0.0000 H       1  UNL1        0.0340
     50 H           7.2609   -1.7880    0.0000 H       1  UNL1        0.0427
     51 H           5.2787   -0.5463    0.0000 H       1  UNL1        0.0772
     52 H           8.7773    0.7776    0.0000 H       1  UNL1        0.0319
     53 H           8.9704   -1.0087    0.0000 H       1  UNL1        0.0745
     54 H           7.0067    2.1436    0.0000 H       1  UNL1        0.0269
     55 H           6.6082    2.8338    0.0000 H       1  UNL1        0.0269
     56 H           8.1069    1.2447    0.0000 H       1  UNL1        0.0237
     57 H           7.7934    2.0635    0.0000 H       1  UNL1        0.0237
     58 H           6.9745    1.7500    0.0000 H       1  UNL1        0.0237
     59 H           5.9286    3.2262    0.0000 H       1  UNL1        0.0275
     60 H           5.1316    3.2262    0.0000 H       1  UNL1        0.0275
     61 H           8.5948    2.2441    0.0000 H       1  UNL1        0.0381
     62 H           7.9551    1.7687    0.0000 H       1  UNL1        0.0381
     63 H           6.7737   -1.7387    0.0000 H       1  UNL1        0.2128
     64 H           9.9488   -0.0365    0.0000 H       1  UNL1        0.0236
     65 H           9.4399   -1.0973    0.0000 H       1  UNL1        0.0236
     66 H          10.2575   -0.7807    0.0000 H       1  UNL1        0.0236
     67 H           9.9409    0.0370    0.0000 H       1  UNL1        0.0236
     68 H          10.0834    0.8299    0.0000 H       1  UNL1        0.0236
     69 H           9.2170    0.9645    0.0000 H       1  UNL1        0.0236
     70 H           3.2362    3.1010    0.0000 H       1  UNL1        0.0795
     71 H           3.7773    0.0966    0.0000 H       1  UNL1        0.0689
     72 H           5.2841    3.2512    0.0000 H       1  UNL1        0.0239
     73 H           4.6641    3.8712    0.0000 H       1  UNL1        0.0239
     74 H           4.0441    3.2512    0.0000 H       1  UNL1        0.0239
     75 H           4.1806   -3.4888    0.0000 H       1  UNL1        0.0410
     76 H           9.3654   -3.0417    0.0000 H       1  UNL1        0.0410
     77 H           5.1849    4.1658    0.0000 H       1  UNL1        0.0653
     78 H           2.3877    4.1982    0.0000 H       1  UNL1        0.1033
     79 H           5.1967   -4.5603    0.0000 H       1  UNL1        0.0270
     80 H           5.4297   -3.7980    0.0000 H       1  UNL1        0.0270
     81 H           3.8589   -2.1807    0.0000 H       1  UNL1        0.0238
     82 H           3.0847   -2.5924    0.0000 H       1  UNL1        0.0238
     83 H           3.4964   -3.3666    0.0000 H       1  UNL1        0.0238
     84 H           8.1871   -4.1694    0.0000 H       1  UNL1        0.0270
     85 H           8.2667   -4.9625    0.0000 H       1  UNL1        0.0270
     86 H           4.6697    5.8161    0.0000 H       1  UNL1        0.1029
     87 H          10.1674   -4.1240    0.0000 H       1  UNL1        0.0238
     88 H          10.7224   -3.4452    0.0000 H       1  UNL1        0.0238
     89 H          10.0436   -2.8902    0.0000 H       1  UNL1        0.0238
     90 H          11.0132    2.1575    0.0000 H       1  UNL1        0.0661
     91 H          11.5577    2.8448    0.0000 H       1  UNL1        0.0661
     92 H          10.8704    3.3892    0.0000 H       1  UNL1        0.0661
     93 H           3.7048   -4.2689    0.0000 H       1  UNL1        0.0230
     94 H           3.6742   -5.1452    0.0000 H       1  UNL1        0.0230
     95 H           4.5505   -5.1758    0.0000 H       1  UNL1        0.0230
     96 H           8.7801   -5.6924    0.0000 H       1  UNL1        0.0230
     97 H           9.6455   -5.8336    0.0000 H       1  UNL1        0.0230
     98 H           9.7867   -4.9683    0.0000 H       1  UNL1        0.0230
@<TRIPOS>BOND
     1     1    13    1
     2     1    14    1
     3     2    14    1
     4     2    63    1
     5     3    17    1
     6     3    34    1
     7     4    20    1
     8     4    36    1
     9     5    29    1
    10     5    33    1
    11     6    32    1
    12     6    46    1
    13     7    32    2
    14     8    33    2
    15     9    34    2
    16    10    36    2
    17    11    40   ar
    18    11    44   ar
    19    12    14    1
    20    12    15    1
    21    12    18    1
    22    12    24    1
    23    13    15    1
    24    13    17    1
    25    13    22    1
    26    14    16    1
    27    15    21    1
    28    15    49    1
    29    16    17    1
    30    16    20    1
    31    16    50    1
    32    17    51    1
    33    18    19    1
    34    18    26    1
    35    18    52    1
    36    19    20    1
    37    19    27    1
    38    19    28    1
    39    20    53    1
    40    21    25    1
    41    21    54    1
    42    21    55    1
    43    22    23    1
    44    22    30    2
    45    23    25    1
    46    23    29    1
    47    23    31    1
    48    24    56    1
    49    24    57    1
    50    24    58    1
    51    25    59    1
    52    25    60    1
    53    26    32    1
    54    26    61    1
    55    26    62    1
    56    27    65    1
    57    27    66    1
    58    27    67    1
    59    28    64    1
    60    28    68    1
    61    28    69    1
    62    29    35    1
    63    29    70    1
    64    30    33    1
    65    30    71    1
    66    31    72    1
    67    31    73    1
    68    31    74    1
    69    34    37    1
    70    35    39   ar
    71    35    40   ar
    72    36    38    1
    73    37    41    1
    74    37    42    1
    75    37    75    1
    76    38    43    1
    77    38    45    1
    78    38    76    1
    79    39    44   ar
    80    39    77    1
    81    40    78    1
    82    41    47    1
    83    41    79    1
    84    41    80    1
    85    42    81    1
    86    42    82    1
    87    42    83    1
    88    43    48    1
    89    43    84    1
    90    43    85    1
    91    44    86    1
    92    45    87    1
    93    45    88    1
    94    45    89    1
    95    46    90    1
    96    46    91    1
    97    46    92    1
    98    47    93    1
    99    47    94    1
   100    47    95    1
   101    48    96    1
   102    48    97    1
   103    48    98    1
