@<TRIPOS>MOLECULE
IMPHY002399
 33 35 0 0 0
SMALL
GASTEIGER

@<TRIPOS>ATOM
      1 C        2613.4800 2556.4200    0.0000 C.3     1  UNL1        0.0067
      2 C        2578.8500 2576.4700    0.0000 C.3     1  UNL1        0.0751
      3 C        2550.5600 2604.7500    0.0000 C.3     1  UNL1        0.2118
      4 C        2551.9500 2548.1800    0.0000 C.3     1  UNL1        0.2165
      5 O        2455.5900 2568.7300    0.0000 O.3     1  UNL1       -0.4452
      6 C        2420.9500 2548.6800    0.0000 C.2     1  UNL1        0.3369
      7 C        2386.3200 2568.7300    0.0000 C.2     1  UNL1        0.0495
      8 C        2351.7800 2548.6800    0.0000 C.2     1  UNL1       -0.0236
      9 C        2317.1400 2568.7300    0.0000 C.3     1  UNL1        0.0306
     10 C        2386.3200 2608.6200    0.0000 C.3     1  UNL1        0.0375
     11 O        2420.9500 2508.6800    0.0000 O.2     1  UNL1       -0.2453
     12 C        2510.9700 2508.5800    0.0000 C.3     1  UNL1        0.1128
     13 C        2550.5600 2508.5800    0.0000 C.3     1  UNL1        0.1808
     14 C        2578.8500 2536.8700    0.0000 C.3     1  UNL1        0.0719
     15 C        2613.4800 2516.8200    0.0000 C.2     1  UNL1        0.0234
     16 C        2648.1200 2536.8700    0.0000 C.2     1  UNL1        0.2300
     17 O        2682.8600 2516.8200    0.0000 O.2     1  UNL1       -0.2835
     18 C        2613.4800 2476.8300    0.0000 C.2     1  UNL1       -0.0011
     19 O        2550.5600 2433.2600    0.0000 O.3     1  UNL1       -0.4498
     20 C        2592.9400 2409.0400    0.0000 C.2     1  UNL1        0.3446
     21 C        2627.5800 2428.9900    0.0000 C.3     1  UNL1        0.2149
     22 C        2662.2100 2409.0400    0.0000 C.3     1  UNL1        0.0445
     23 C        2647.6200 2463.6300    0.0000 C.3     1  UNL1        0.0445
     24 O        2607.6300 2463.6300    0.0000 O.3     1  UNL1       -0.2143
     25 O        2592.9400 2369.0500    0.0000 O.2     1  UNL1       -0.2474
     26 C        2482.6800 2536.8700    0.0000 C.2     1  UNL1        0.0602
     27 C        2482.6800 2576.4700    0.0000 C.2     1  UNL1        0.3374
     28 O        2510.9700 2604.7500    0.0000 O.3     1  UNL1       -0.4455
     29 O        2445.8600 2592.0500    0.0000 O.2     1  UNL1       -0.2452
     30 C        2445.6600 2521.8800    0.0000 C.2     1  UNL1        0.0022
     31 C        2613.4800 2596.4100    0.0000 C.3     1  UNL1        0.1486
     32 C        2653.8800 2596.4100    0.0000 C.3     1  UNL1        0.1716
     33 O        2633.6300 2630.9500    0.0000 O.3     1  UNL1       -0.3510
@<TRIPOS>BOND
     1     2     1    1
     2     2     3    1
     3     2    14    1
     4     2    31    1
     5     3     4    1
     6     3    28    1
     7     4     5    1
     8     5     6    1
     9     6     7    1
    10     6    11    2
    11     7     8    2
    12     7    10    1
    13     8     9    1
    14    12     4    1
    15    12    26    1
    16    13    12    1
    17    13    19    1
    18    14    13    1
    19    14    15    1
    20    15    16    1
    21    15    18    2
    22    16    17    2
    23    19    20    1
    24    20    21    1
    25    20    25    2
    26    21    22    1
    27    21    23    1
    28    21    24    1
    29    26    30    2
    30    27    26    1
    31    27    29    2
    32    28    27    1
    33    31    32    1
    34    31    33    1
    35    32    33    1
