@<TRIPOS>MOLECULE
IMPHY010723
 47 52 0 0 0
SMALL
GASTEIGER

@<TRIPOS>ATOM
      1 O          10.7524   -3.9564    0.0000 O.3     1  UNL1       -0.4476
      2 C           9.6237   -3.3029    0.0000 C.3     1  UNL1        0.1937
      3 C           8.5069   -3.9564    0.0000 C.3     1  UNL1        0.0404
      4 C           8.5069   -5.2514    0.0000 C.3     1  UNL1        0.0201
      5 C           7.3900   -5.9049    0.0000 C.3     1  UNL1        0.1121
      6 O           8.6376   -6.2376    0.0000 O.3     1  UNL1       -0.3563
      7 C           7.7227   -7.1524    0.0000 C.3     1  UNL1        0.1495
      8 C           7.0811   -8.2811    0.0000 C.3     1  UNL1        0.1269
      9 C           5.8217   -8.6257    0.0000 C.3     1  UNL1        0.1777
     10 C           4.6930   -7.9722    0.0000 C.3     1  UNL1        0.0382
     11 C           4.3604   -6.7247    0.0000 C.3     1  UNL1        0.0380
     12 C           5.0138   -5.5960    0.0000 C.3     1  UNL1        0.0510
     13 C           6.2613   -5.2633    0.0000 C.3     1  UNL1        0.0120
     14 C           6.2613   -3.9564    0.0000 C.3     1  UNL1       -0.0011
     15 C           7.3900   -3.3029    0.0000 C.3     1  UNL1        0.0034
     16 C          10.7524   -5.2514    0.0000 C.2     1  UNL1        0.3169
     17 C           9.6237   -5.9049    0.0000 C.3     1  UNL1        0.1081
     18 C           5.1089   -7.3544    0.0000 C.2     1  UNL1        0.1551
     19 O           3.6950   -7.3544    0.0000 O.2     1  UNL1       -0.2959
     20 C           9.6237   -1.9960    0.0000 C.ar    1  UNL1        0.0580
     21 C          10.6811   -1.2356    0.0000 C.ar    1  UNL1        0.1789
     22 O          10.2890    0.0000    0.0000 O.2     1  UNL1       -0.4475
     23 C           8.9940    0.0000    0.0000 C.ar    1  UNL1        0.1795
     24 C           8.5782   -1.2356    0.0000 C.ar    1  UNL1        0.0430
     25 C           8.5069   -2.7564    0.0000 C.3     1  UNL1        0.0037
     26 O           5.8336   -9.9088    0.0000 O.3     1  UNL1       -0.4518
     27 C           6.9504  -10.5623    0.0000 C.2     1  UNL1        0.3163
     28 O           6.9504  -11.8573    0.0000 O.2     1  UNL1       -0.2501
     29 C           4.4435   -9.2435    0.0000 C.3     1  UNL1        0.0034
     30 C           3.4693   -8.3881    0.0000 C.3     1  UNL1        0.0034
     31 C           2.5901   -6.7247    0.0000 C.3     1  UNL1        0.2629
     32 O           1.9485   -5.5960    0.0000 O.3     1  UNL1       -0.4410
     33 C           0.6535   -5.5960    0.0000 C.2     1  UNL1        0.3179
     34 O           0.0000   -4.4673    0.0000 O.2     1  UNL1       -0.2501
     35 C           4.3485   -4.4792    0.0000 C.3     1  UNL1        0.0069
     36 O          11.8811   -5.9049    0.0000 O.2     1  UNL1       -0.2501
     37 C           8.0792   -9.9088    0.0000 C.3     1  UNL1        0.0991
     38 C           9.1960  -10.5623    0.0000 C.3     1  UNL1        0.0116
     39 C           1.9366   -7.8415    0.0000 C.2     1  UNL1        0.3575
     40 O           2.5901   -8.9702    0.0000 O.2     1  UNL1       -0.2461
     41 C           0.0000   -6.7247    0.0000 C.3     1  UNL1        0.1212
     42 C           8.0792   -8.6138    0.0000 C.3     1  UNL1        0.0116
     43 O           0.6416   -7.8415    0.0000 O.3     1  UNL1       -0.4419
     44 C           0.0000   -8.9584    0.0000 C.3     1  UNL1        0.2557
     45 H           9.3980   -4.4911    0.0000 H       1  UNL1        0.0348
     46 H           6.2495   -6.4752    0.0000 H       1  UNL1        0.0345
     47 H           3.5049   -5.6673    0.0000 H       1  UNL1        0.0363
@<TRIPOS>BOND
     1     1     2    1
     2     1    16    1
     3     2     3    1
     4     2    20    1
     5     3    15    1
     6     3     4    1
     7     3    25    1
     8     4     5    1
     9     4    17    1
    10     4    45    1
    11     5    13    1
    12     5     6    1
    13     5     7    1
    14     7     6    1
    15     7     8    1
    16     8    18    1
    17     8     9    1
    18     9    10    1
    19     9    26    1
    20    10    11    1
    21    10    30    1
    22    10    29    1
    23    11    12    1
    24    11    31    1
    25    11    47    1
    26    12    13    1
    27    12    18    1
    28    12    35    1
    29    13    14    1
    30    13    46    1
    31    14    15    1
    32    16    17    1
    33    16    36    2
    34    18    19    2
    35    20    24   ar
    36    20    21   ar
    37    21    22   ar
    38    22    23   ar
    39    23    24   ar
    40    26    27    1
    41    27    28    2
    42    27    37    1
    43    31    32    1
    44    31    39    1
    45    32    33    1
    46    33    34    2
    47    33    41    1
    48    37    38    1
    49    37    42    1
    50    39    43    1
    51    39    40    2
    52    43    44    1
