@<TRIPOS>MOLECULE
IMPHY010009
 88 87 0 0 0
SMALL
GASTEIGER

@<TRIPOS>ATOM
      1 O           8.0622   -1.2500    0.0000 O.2     1  UNL1       -0.2974
      2 O          27.1147   -0.2500    0.0000 O.3     1  UNL1       -0.4806
      3 O          26.2487    1.2500    0.0000 O.2     1  UNL1       -0.2510
      4 C          16.7224   -0.2500    0.0000 C.3     1  UNL1       -0.0531
      5 C          15.8564    0.2500    0.0000 C.3     1  UNL1       -0.0531
      6 C          17.5885    0.2500    0.0000 C.3     1  UNL1       -0.0531
      7 C          14.9904   -0.2500    0.0000 C.3     1  UNL1       -0.0531
      8 C          18.4545   -0.2500    0.0000 C.3     1  UNL1       -0.0531
      9 C          14.1244    0.2500    0.0000 C.3     1  UNL1       -0.0531
     10 C          19.3205    0.2500    0.0000 C.3     1  UNL1       -0.0531
     11 C          13.2583   -0.2500    0.0000 C.3     1  UNL1       -0.0531
     12 C          20.1865   -0.2500    0.0000 C.3     1  UNL1       -0.0531
     13 C          12.3923    0.2500    0.0000 C.3     1  UNL1       -0.0531
     14 C          21.0526    0.2500    0.0000 C.3     1  UNL1       -0.0531
     15 C          11.5263   -0.2500    0.0000 C.3     1  UNL1       -0.0530
     16 C          21.9186   -0.2500    0.0000 C.3     1  UNL1       -0.0531
     17 C          10.6603    0.2500    0.0000 C.3     1  UNL1       -0.0527
     18 C          22.7846    0.2500    0.0000 C.3     1  UNL1       -0.0530
     19 C           9.7942   -0.2500    0.0000 C.3     1  UNL1       -0.0464
     20 C          23.6506   -0.2500    0.0000 C.3     1  UNL1       -0.0526
     21 C           8.9282    0.2500    0.0000 C.3     1  UNL1        0.0058
     22 C           7.1962    0.2500    0.0000 C.3     1  UNL1        0.0058
     23 C           6.3301   -0.2500    0.0000 C.3     1  UNL1       -0.0464
     24 C          24.5167    0.2500    0.0000 C.3     1  UNL1       -0.0430
     25 C           8.0622   -0.2500    0.0000 C.2     1  UNL1        0.1334
     26 C           5.4641    0.2500    0.0000 C.3     1  UNL1       -0.0527
     27 C           4.5981   -0.2500    0.0000 C.3     1  UNL1       -0.0531
     28 C           3.7320    0.2500    0.0000 C.3     1  UNL1       -0.0533
     29 C          25.3827   -0.2500    0.0000 C.3     1  UNL1        0.0448
     30 C           2.8660   -0.2500    0.0000 C.3     1  UNL1       -0.0559
     31 C          26.2487    0.2500    0.0000 C.2     1  UNL1        0.3047
     32 C           2.0000    0.2500    0.0000 C.3     1  UNL1       -0.0653
     33 H          16.3239   -0.7249    0.0000 H       1  UNL1        0.0265
     34 H          17.1210   -0.7249    0.0000 H       1  UNL1        0.0265
     35 H          16.2549    0.7249    0.0000 H       1  UNL1        0.0265
     36 H          15.4579    0.7249    0.0000 H       1  UNL1        0.0265
     37 H          17.9870    0.7249    0.0000 H       1  UNL1        0.0265
     38 H          17.1899    0.7249    0.0000 H       1  UNL1        0.0265
     39 H          14.5919   -0.7249    0.0000 H       1  UNL1        0.0265
     40 H          15.3889   -0.7249    0.0000 H       1  UNL1        0.0265
     41 H          18.0560   -0.7249    0.0000 H       1  UNL1        0.0265
     42 H          18.8530   -0.7249    0.0000 H       1  UNL1        0.0265
     43 H          14.5229    0.7249    0.0000 H       1  UNL1        0.0265
     44 H          13.7258    0.7249    0.0000 H       1  UNL1        0.0265
     45 H          19.7190    0.7249    0.0000 H       1  UNL1        0.0265
     46 H          18.9220    0.7249    0.0000 H       1  UNL1        0.0265
     47 H          12.8598   -0.7249    0.0000 H       1  UNL1        0.0265
     48 H          13.6569   -0.7249    0.0000 H       1  UNL1        0.0265
     49 H          19.7880   -0.7249    0.0000 H       1  UNL1        0.0265
     50 H          20.5851   -0.7249    0.0000 H       1  UNL1        0.0265
     51 H          12.7908    0.7249    0.0000 H       1  UNL1        0.0265
     52 H          11.9938    0.7249    0.0000 H       1  UNL1        0.0265
     53 H          21.4511    0.7249    0.0000 H       1  UNL1        0.0265
     54 H          20.6540    0.7249    0.0000 H       1  UNL1        0.0265
     55 H          11.1278   -0.7249    0.0000 H       1  UNL1        0.0265
     56 H          11.9248   -0.7249    0.0000 H       1  UNL1        0.0265
     57 H          21.5201   -0.7249    0.0000 H       1  UNL1        0.0265
     58 H          22.3171   -0.7249    0.0000 H       1  UNL1        0.0265
     59 H          11.0588    0.7249    0.0000 H       1  UNL1        0.0265
     60 H          10.2617    0.7249    0.0000 H       1  UNL1        0.0265
     61 H          23.1831    0.7249    0.0000 H       1  UNL1        0.0265
     62 H          22.3861    0.7249    0.0000 H       1  UNL1        0.0265
     63 H           9.3957   -0.7249    0.0000 H       1  UNL1        0.0269
     64 H          10.1928   -0.7249    0.0000 H       1  UNL1        0.0269
     65 H          23.2521   -0.7249    0.0000 H       1  UNL1        0.0265
     66 H          24.0492   -0.7249    0.0000 H       1  UNL1        0.0265
     67 H           9.3267    0.7249    0.0000 H       1  UNL1        0.0342
     68 H           8.5297    0.7249    0.0000 H       1  UNL1        0.0342
     69 H           5.9316   -0.7249    0.0000 H       1  UNL1        0.0269
     70 H           6.7287   -0.7249    0.0000 H       1  UNL1        0.0269
     71 H           7.5947    0.7249    0.0000 H       1  UNL1        0.0342
     72 H           6.7976    0.7249    0.0000 H       1  UNL1        0.0342
     73 H          24.9152    0.7249    0.0000 H       1  UNL1        0.0270
     74 H          24.1181    0.7249    0.0000 H       1  UNL1        0.0270
     75 H           5.8626    0.7249    0.0000 H       1  UNL1        0.0265
     76 H           5.0656    0.7249    0.0000 H       1  UNL1        0.0265
     77 H           4.1996   -0.7249    0.0000 H       1  UNL1        0.0265
     78 H           4.9966   -0.7249    0.0000 H       1  UNL1        0.0265
     79 H           4.1306    0.7249    0.0000 H       1  UNL1        0.0265
     80 H           3.3335    0.7249    0.0000 H       1  UNL1        0.0265
     81 H          24.9842   -0.7249    0.0000 H       1  UNL1        0.0377
     82 H          25.7812   -0.7249    0.0000 H       1  UNL1        0.0377
     83 H           2.4675   -0.7249    0.0000 H       1  UNL1        0.0263
     84 H           3.2646   -0.7249    0.0000 H       1  UNL1        0.0263
     85 H           2.3100    0.7869    0.0000 H       1  UNL1        0.0230
     86 H           1.4631    0.5600    0.0000 H       1  UNL1        0.0230
     87 H           1.6900   -0.2869    0.0000 H       1  UNL1        0.0230
     88 H          27.6517    0.0600    0.0000 H       1  UNL1        0.2951
@<TRIPOS>BOND
     1     1    25    2
     2     2    31    1
     3     2    88    1
     4     3    31    2
     5     4     5    1
     6     4     6    1
     7     4    33    1
     8     4    34    1
     9     5     7    1
    10     5    35    1
    11     5    36    1
    12     6     8    1
    13     6    37    1
    14     6    38    1
    15     7     9    1
    16     7    39    1
    17     7    40    1
    18     8    10    1
    19     8    41    1
    20     8    42    1
    21     9    11    1
    22     9    43    1
    23     9    44    1
    24    10    12    1
    25    10    45    1
    26    10    46    1
    27    11    13    1
    28    11    47    1
    29    11    48    1
    30    12    14    1
    31    12    49    1
    32    12    50    1
    33    13    15    1
    34    13    51    1
    35    13    52    1
    36    14    16    1
    37    14    53    1
    38    14    54    1
    39    15    17    1
    40    15    55    1
    41    15    56    1
    42    16    18    1
    43    16    57    1
    44    16    58    1
    45    17    19    1
    46    17    59    1
    47    17    60    1
    48    18    20    1
    49    18    61    1
    50    18    62    1
    51    19    21    1
    52    19    63    1
    53    19    64    1
    54    20    24    1
    55    20    65    1
    56    20    66    1
    57    21    25    1
    58    21    67    1
    59    21    68    1
    60    22    23    1
    61    22    25    1
    62    22    71    1
    63    22    72    1
    64    23    26    1
    65    23    69    1
    66    23    70    1
    67    24    29    1
    68    24    73    1
    69    24    74    1
    70    26    27    1
    71    26    75    1
    72    26    76    1
    73    27    28    1
    74    27    77    1
    75    27    78    1
    76    28    30    1
    77    28    79    1
    78    28    80    1
    79    29    31    1
    80    29    81    1
    81    29    82    1
    82    30    32    1
    83    30    83    1
    84    30    84    1
    85    32    85    1
    86    32    86    1
    87    32    87    1
