@<TRIPOS>MOLECULE
IMPHY013939
 23 25 0 0 0
SMALL
GASTEIGER

@<TRIPOS>ATOM
      1 S           4.6660    1.5173    0.0000 S.2     1  UNL1       -0.0506
      2 O           4.6660   -1.4827    0.0000 O.2     1  UNL1       -0.4548
      3 C           5.5321    0.0173    0.0000 C.ar    1  UNL1        0.0321
      4 C           3.8000    0.0173    0.0000 C.ar    1  UNL1        0.0321
      5 C           5.5321   -0.9827    0.0000 C.ar    1  UNL1        0.1367
      6 C           3.8000   -0.9827    0.0000 C.ar    1  UNL1        0.1367
      7 C           4.6660    0.5173    0.0000 C.ar    1  UNL1        0.0403
      8 C           6.4260    0.5520    0.0000 C.ar    1  UNL1       -0.0500
      9 C           2.9061    0.5520    0.0000 C.ar    1  UNL1       -0.0500
     10 C           6.4260   -1.5173    0.0000 C.ar    1  UNL1       -0.0187
     11 C           2.9061   -1.5173    0.0000 C.ar    1  UNL1       -0.0187
     12 C           7.3321    0.0381    0.0000 C.ar    1  UNL1       -0.0609
     13 C           2.0000    0.0381    0.0000 C.ar    1  UNL1       -0.0609
     14 C           7.3321   -1.0035    0.0000 C.ar    1  UNL1       -0.0582
     15 C           2.0000   -1.0035    0.0000 C.ar    1  UNL1       -0.0582
     16 H           6.4188    1.1720    0.0000 H       1  UNL1        0.0625
     17 H           2.9132    1.1720    0.0000 H       1  UNL1        0.0625
     18 H           6.4188   -2.1373    0.0000 H       1  UNL1        0.0654
     19 H           2.9132   -2.1373    0.0000 H       1  UNL1        0.0654
     20 H           7.8678    0.3502    0.0000 H       1  UNL1        0.0618
     21 H           1.4643    0.3502    0.0000 H       1  UNL1        0.0618
     22 H           7.8678   -1.3156    0.0000 H       1  UNL1        0.0619
     23 H           1.4643   -1.3156    0.0000 H       1  UNL1        0.0619
@<TRIPOS>BOND
     1     1     7    2
     2     2     5   ar
     3     2     6   ar
     4     3     5   ar
     5     3     7   ar
     6     3     8   ar
     7     4     6   ar
     8     4     7   ar
     9     4     9   ar
    10     5    10   ar
    11     6    11   ar
    12     8    12   ar
    13     8    16    1
    14     9    13   ar
    15     9    17    1
    16    10    14   ar
    17    10    18    1
    18    11    15   ar
    19    11    19    1
    20    12    14   ar
    21    12    20    1
    22    13    15   ar
    23    13    21    1
    24    14    22    1
    25    15    23    1
