@<TRIPOS>MOLECULE
IMPHY006133
 27 29 0 0 0
SMALL
GASTEIGER

@<TRIPOS>ATOM
      1 O           4.6660    2.0000    0.0000 O.2     1  UNL1       -0.2864
      2 O           4.6660   -2.0000    0.0000 O.2     1  UNL1       -0.2865
      3 O           6.4144    2.0346    0.0000 O.3     1  UNL1       -0.5060
      4 O           6.4144   -2.0346    0.0000 O.3     1  UNL1       -0.5060
      5 O           2.9176    2.0346    0.0000 O.3     1  UNL1       -0.5060
      6 C           5.5321    0.5000    0.0000 C.ar    1  UNL1        0.0780
      7 C           5.5321   -0.5000    0.0000 C.ar    1  UNL1        0.0779
      8 C           3.8000    0.5000    0.0000 C.ar    1  UNL1        0.0745
      9 C           3.8000   -0.5000    0.0000 C.ar    1  UNL1        0.0367
     10 C           4.6660    1.0000    0.0000 C.2     1  UNL1        0.2016
     11 C           4.6660   -1.0000    0.0000 C.2     1  UNL1        0.1982
     12 C           6.4260    1.0347    0.0000 C.ar    1  UNL1        0.1286
     13 C           6.4260   -1.0347    0.0000 C.ar    1  UNL1        0.1286
     14 C           2.9061    1.0347    0.0000 C.ar    1  UNL1        0.1283
     15 C           2.9061   -1.0347    0.0000 C.ar    1  UNL1       -0.0500
     16 C           7.3321    0.5208    0.0000 C.ar    1  UNL1       -0.0160
     17 C           7.3321   -0.5208    0.0000 C.ar    1  UNL1       -0.0160
     18 C           2.0000    0.5208    0.0000 C.ar    1  UNL1       -0.0194
     19 C           2.0000   -0.5208    0.0000 C.ar    1  UNL1       -0.0576
     20 H           2.9132   -1.6546    0.0000 H       1  UNL1        0.0625
     21 H           7.8678    0.8329    0.0000 H       1  UNL1        0.0655
     22 H           7.8678   -0.8329    0.0000 H       1  UNL1        0.0655
     23 H           1.4643    0.8329    0.0000 H       1  UNL1        0.0654
     24 H           1.4643   -0.8329    0.0000 H       1  UNL1        0.0619
     25 H           6.9478    2.3508    0.0000 H       1  UNL1        0.2922
     26 H           6.9478   -2.3508    0.0000 H       1  UNL1        0.2922
     27 H           2.3843    2.3508    0.0000 H       1  UNL1        0.2922
@<TRIPOS>BOND
     1     1    10    2
     2     2    11    2
     3     3    12    1
     4     3    25    1
     5     4    13    1
     6     4    26    1
     7     5    14    1
     8     5    27    1
     9     6     7   ar
    10     6    10    1
    11     6    12   ar
    12     7    11    1
    13     7    13   ar
    14     8     9   ar
    15     8    10    1
    16     8    14   ar
    17     9    11    1
    18     9    15   ar
    19    12    16   ar
    20    13    17   ar
    21    14    18   ar
    22    15    19   ar
    23    15    20    1
    24    16    17   ar
    25    16    21    1
    26    17    22    1
    27    18    19   ar
    28    18    23    1
    29    19    24    1
