@<TRIPOS>MOLECULE
IMPHY013504
 33 30 0 0 0
SMALL
GASTEIGER

@<TRIPOS>ATOM
      1 O           3.1350    0.4749    0.0000 O.3     1  UNL1       -0.3753
      2 O           5.7331    0.9749    0.0000 O.3     1  UNL1       -0.3927
      3 O           0.5369    0.9749    0.0000 O.3     1  UNL1       -0.3927
      4 O           4.0010    4.9499    0.0000 O.3     2  UNL2       -0.4808
      5 O           4.0010    8.9868    0.0000 O.3     3  UNL3       -0.4808
      6 O           3.1350    3.4499    0.0000 O.2     2  UNL2       -0.2513
      7 O           3.1350    7.4868    0.0000 O.2     3  UNL3       -0.2513
      8 C           4.0010    0.9749    0.0000 C.3     1  UNL1        0.0708
      9 C           2.2690    0.9749    0.0000 C.3     1  UNL1        0.0708
     10 C           4.8671    0.4749    0.0000 C.3     1  UNL1        0.0676
     11 C           1.4030    0.4749    0.0000 C.3     1  UNL1        0.0676
     12 C           2.2690    4.9499    0.0000 C.3     2  UNL2        0.0331
     13 C           2.2690    8.9868    0.0000 C.3     3  UNL3        0.0331
     14 C           3.1350    4.4499    0.0000 C.2     2  UNL2        0.3016
     15 C           3.1350    8.4868    0.0000 C.2     3  UNL3        0.3016
     16 H           4.3996    1.4499    0.0000 H       1  UNL1        0.0583
     17 H           3.6025    1.4499    0.0000 H       1  UNL1        0.0583
     18 H           2.6675    1.4499    0.0000 H       1  UNL1        0.0583
     19 H           1.8705    1.4499    0.0000 H       1  UNL1        0.0583
     20 H           4.4685    0.0000    0.0000 H       1  UNL1        0.0580
     21 H           5.2656    0.0000    0.0000 H       1  UNL1        0.0580
     22 H           1.0044    0.0000    0.0000 H       1  UNL1        0.0580
     23 H           1.8015    0.0000    0.0000 H       1  UNL1        0.0580
     24 H           6.2700    0.6649    0.0000 H       1  UNL1        0.2095
     25 H           0.0000    0.6649    0.0000 H       1  UNL1        0.2095
     26 H           2.5790    5.4868    0.0000 H       2  UNL2        0.0342
     27 H           1.7320    5.2599    0.0000 H       2  UNL2        0.0342
     28 H           1.9590    4.4130    0.0000 H       2  UNL2        0.0342
     29 H           2.5790    9.5238    0.0000 H       3  UNL3        0.0342
     30 H           1.7320    9.2968    0.0000 H       3  UNL3        0.0342
     31 H           1.9590    8.4499    0.0000 H       3  UNL3        0.0342
     32 H           4.5380    4.6399    0.0000 H       2  UNL2        0.2950
     33 H           4.5380    8.6768    0.0000 H       3  UNL3        0.2950
@<TRIPOS>BOND
     1     1     8    1
     2     1     9    1
     3     2    10    1
     4     2    24    1
     5     3    11    1
     6     3    25    1
     7     4    14    1
     8     4    32    1
     9     5    15    1
    10     5    33    1
    11     6    14    2
    12     7    15    2
    13     8    10    1
    14     8    16    1
    15     8    17    1
    16     9    11    1
    17     9    18    1
    18     9    19    1
    19    10    20    1
    20    10    21    1
    21    11    22    1
    22    11    23    1
    23    12    14    1
    24    12    26    1
    25    12    27    1
    26    12    28    1
    27    13    15    1
    28    13    29    1
    29    13    30    1
    30    13    31    1
