@<TRIPOS>MOLECULE
IMPHY017653
 25 26 0 0 0
SMALL
GASTEIGER

@<TRIPOS>ATOM
      1 C           3.7320    0.5000    0.0000 C.3     1  UNL1       -0.0382
      2 C           3.7320   -0.5000    0.0000 C.3     1  UNL1       -0.0382
      3 C           4.6783    0.8047    0.0000 C.3     1  UNL1       -0.0499
      4 C           4.6783   -0.8047    0.0000 C.3     1  UNL1       -0.0499
      5 C           2.8660    1.0000    0.0000 C.3     1  UNL1       -0.0500
      6 C           2.8660   -1.0000    0.0000 C.3     1  UNL1       -0.0500
      7 C           5.2619   -0.0000    0.0000 C.3     1  UNL1       -0.0525
      8 C           2.0000    0.5000    0.0000 C.3     1  UNL1       -0.0528
      9 C           2.0000   -0.5000    0.0000 C.3     1  UNL1       -0.0528
     10 H           3.8220    1.3452    0.0000 H       1  UNL1        0.0303
     11 H           3.8220   -1.3452    0.0000 H       1  UNL1        0.0303
     12 H           5.2156    1.1140    0.0000 H       1  UNL1        0.0268
     13 H           4.4272    1.3716    0.0000 H       1  UNL1        0.0268
     14 H           4.4272   -1.3716    0.0000 H       1  UNL1        0.0268
     15 H           5.2156   -1.1140    0.0000 H       1  UNL1        0.0268
     16 H           3.2646    1.4750    0.0000 H       1  UNL1        0.0268
     17 H           2.4675    1.4750    0.0000 H       1  UNL1        0.0268
     18 H           2.4675   -1.4750    0.0000 H       1  UNL1        0.0268
     19 H           3.2646   -1.4750    0.0000 H       1  UNL1        0.0268
     20 H           5.7227   -0.4147    0.0000 H       1  UNL1        0.0265
     21 H           5.7227    0.4147    0.0000 H       1  UNL1        0.0265
     22 H           1.7880    1.0826    0.0000 H       1  UNL1        0.0265
     23 H           1.3894    0.3923    0.0000 H       1  UNL1        0.0265
     24 H           1.3894   -0.3923    0.0000 H       1  UNL1        0.0265
     25 H           1.7880   -1.0826    0.0000 H       1  UNL1        0.0265
@<TRIPOS>BOND
     1     1     2    1
     2     1     3    1
     3     1     5    1
     4     1    10    1
     5     2     4    1
     6     2     6    1
     7     2    11    1
     8     3     7    1
     9     3    12    1
    10     3    13    1
    11     4     7    1
    12     4    14    1
    13     4    15    1
    14     5     8    1
    15     5    16    1
    16     5    17    1
    17     6     9    1
    18     6    18    1
    19     6    19    1
    20     7    20    1
    21     7    21    1
    22     8     9    1
    23     8    22    1
    24     8    23    1
    25     9    24    1
    26     9    25    1
