@<TRIPOS>MOLECULE
IMPHY007020
 23 23 0 0 0
SMALL
GASTEIGER

@<TRIPOS>ATOM
      1 O           2.6200    1.5000    0.0000 O.3     1  UNL1       -0.3799
      2 O           5.1200    2.3660    0.0000 O.3     1  UNL1       -0.4678
      3 O           5.1200    0.6340    0.0000 O.2     1  UNL1       -0.2507
      4 O           3.1200   -2.3660    0.0000 O.2     1  UNL1       -0.2879
      5 C           3.1200    0.6340    0.0000 C.3     1  UNL1        0.1131
      6 C           3.6200    1.5000    0.0000 C.3     1  UNL1        0.0809
      7 C           2.2540    0.1340    0.0000 C.2     1  UNL1       -0.0449
      8 C           3.9860    0.1340    0.0000 C.2     1  UNL1       -0.0449
      9 C           3.9860   -0.8660    0.0000 C.2     1  UNL1       -0.0159
     10 C           2.2540   -0.8660    0.0000 C.2     1  UNL1       -0.0159
     11 C           4.6200    1.5000    0.0000 C.2     1  UNL1        0.3102
     12 C           3.1200   -1.3660    0.0000 C.2     1  UNL1        0.1786
     13 C           6.1200    2.3660    0.0000 C.3     1  UNL1        0.0817
     14 H           3.7277    2.1106    0.0000 H       1  UNL1        0.0412
     15 H           3.0374    1.7120    0.0000 H       1  UNL1        0.0412
     16 H           1.7170    0.4440    0.0000 H       1  UNL1        0.0605
     17 H           4.5230    0.4440    0.0000 H       1  UNL1        0.0605
     18 H           1.7170   -1.1760    0.0000 H       1  UNL1        0.0654
     19 H           4.5230   -1.1760    0.0000 H       1  UNL1        0.0654
     20 H           2.0000    1.5000    0.0000 H       1  UNL1        0.2110
     21 H           6.1200    1.7460    0.0000 H       1  UNL1        0.0661
     22 H           6.7400    2.3660    0.0000 H       1  UNL1        0.0661
     23 H           6.1200    2.9860    0.0000 H       1  UNL1        0.0661
@<TRIPOS>BOND
     1     1     5    1
     2     1    20    1
     3     2    11    1
     4     2    13    1
     5     3    11    2
     6     4    12    2
     7     5     6    1
     8     5     7    1
     9     5     8    1
    10     6    11    1
    11     6    14    1
    12     6    15    1
    13     7    10    2
    14     7    16    1
    15     8     9    2
    16     8    17    1
    17     9    12    1
    18     9    19    1
    19    10    12    1
    20    10    18    1
    21    13    21    1
    22    13    22    1
    23    13    23    1
