@<TRIPOS>MOLECULE
IMPHY014652
 35 37 0 0 0
SMALL
GASTEIGER

@<TRIPOS>ATOM
      1 O           6.0290   -1.0209    0.0000 O.2     1  UNL1       -0.4470
      2 O           4.2690    2.0137    0.0000 O.3     1  UNL1       -0.4905
      3 O           4.2690   -1.9863    0.0000 O.3     1  UNL1       -0.5008
      4 O           7.7991    1.0379    0.0000 O.3     1  UNL1       -0.5007
      5 O           2.5369    1.0137    0.0000 O.3     1  UNL1       -0.5008
      6 O           2.5369   -0.9863    0.0000 O.3     1  UNL1       -0.5007
      7 O           6.0174    2.0483    0.0000 O.2     1  UNL1       -0.2830
      8 C           5.1350    0.5137    0.0000 C.ar    1  UNL1        0.1167
      9 C           5.1350   -0.4863    0.0000 C.ar    1  UNL1        0.1882
     10 C           4.2690    1.0137    0.0000 C.ar    1  UNL1        0.1797
     11 C           6.9350   -0.5071    0.0000 C.ar    1  UNL1        0.1808
     12 C           6.0290    1.0484    0.0000 C.ar    1  UNL1        0.2381
     13 C           4.2690   -0.9863    0.0000 C.ar    1  UNL1        0.2062
     14 C           6.9350    0.5346    0.0000 C.ar    1  UNL1        0.2082
     15 C           3.4030    0.5137    0.0000 C.ar    1  UNL1        0.2055
     16 C           3.4030   -0.4863    0.0000 C.ar    1  UNL1        0.2081
     17 C           7.7991   -1.0104    0.0000 C.ar    1  UNL1        0.0211
     18 C           7.7953   -2.0104    0.0000 C.ar    1  UNL1       -0.0510
     19 C           8.6671   -0.5138    0.0000 C.ar    1  UNL1       -0.0510
     20 C           8.6594   -2.5137    0.0000 C.ar    1  UNL1       -0.0611
     21 C           9.5312   -1.0171    0.0000 C.ar    1  UNL1       -0.0611
     22 C           9.5273   -2.0171    0.0000 C.ar    1  UNL1       -0.0617
     23 C           3.4030    2.5137    0.0000 C.3     1  UNL1        0.0790
     24 H           7.2571   -2.3183    0.0000 H       1  UNL1        0.0625
     25 H           8.6694    0.1062    0.0000 H       1  UNL1        0.0625
     26 H           8.6570   -3.1337    0.0000 H       1  UNL1        0.0618
     27 H          10.0693   -0.7092    0.0000 H       1  UNL1        0.0618
     28 H           3.7320   -2.2963    0.0000 H       1  UNL1        0.2924
     29 H           7.7967    1.6579    0.0000 H       1  UNL1        0.2924
     30 H          10.0630   -2.3292    0.0000 H       1  UNL1        0.0618
     31 H           2.0000    0.7037    0.0000 H       1  UNL1        0.2924
     32 H           2.0000   -0.6763    0.0000 H       1  UNL1        0.2924
     33 H           3.7130    3.0507    0.0000 H       1  UNL1        0.0660
     34 H           2.8660    2.8237    0.0000 H       1  UNL1        0.0660
     35 H           3.0930    1.9768    0.0000 H       1  UNL1        0.0660
@<TRIPOS>BOND
     1     1     9   ar
     2     1    11   ar
     3     2    10    1
     4     2    23    1
     5     3    13    1
     6     3    28    1
     7     4    14    1
     8     4    29    1
     9     5    15    1
    10     5    31    1
    11     6    16    1
    12     6    32    1
    13     7    12    2
    14     8     9   ar
    15     8    10   ar
    16     8    12   ar
    17     9    13   ar
    18    10    15   ar
    19    11    14   ar
    20    11    17    1
    21    12    14   ar
    22    13    16   ar
    23    15    16   ar
    24    17    18   ar
    25    17    19   ar
    26    18    20   ar
    27    18    24    1
    28    19    21   ar
    29    19    25    1
    30    20    22   ar
    31    20    26    1
    32    21    22   ar
    33    21    27    1
    34    22    30    1
    35    23    33    1
    36    23    34    1
    37    23    35    1
