@<TRIPOS>MOLECULE
IMPHY006332
 22 23 0 0 0
SMALL
GASTEIGER

@<TRIPOS>ATOM
      1 O           7.2764    0.4947    0.0000 O.3     1  UNL1       -0.4526
      2 O           7.2764   -1.1147    0.0000 O.3     1  UNL1       -0.4526
      3 C           6.3301    0.1900    0.0000 C.ar    1  UNL1        0.1668
      4 C           6.3301   -0.8100    0.0000 C.ar    1  UNL1        0.1663
      5 C           4.5981    0.1900    0.0000 C.ar    1  UNL1       -0.0216
      6 C           5.4641    0.6900    0.0000 C.ar    1  UNL1       -0.0090
      7 C           5.4641   -1.3100    0.0000 C.ar    1  UNL1       -0.0156
      8 C           4.5981   -0.8100    0.0000 C.ar    1  UNL1       -0.0509
      9 C           7.8600   -0.3100    0.0000 C.3     1  UNL1        0.2332
     10 C           3.7320    0.6900    0.0000 C.2     1  UNL1       -0.0587
     11 C           2.8660    0.1900    0.0000 C.2     1  UNL1       -0.0865
     12 C           2.0000    0.6900    0.0000 C.3     1  UNL1       -0.0465
     13 H           5.4641    1.3100    0.0000 H       1  UNL1        0.0661
     14 H           5.4641   -1.9300    0.0000 H       1  UNL1        0.0655
     15 H           4.0611   -1.1200    0.0000 H       1  UNL1        0.0625
     16 H           8.3208   -0.7247    0.0000 H       1  UNL1        0.1166
     17 H           8.3208    0.1047    0.0000 H       1  UNL1        0.1166
     18 H           3.7320    1.3100    0.0000 H       1  UNL1        0.0620
     19 H           2.8660   -0.4300    0.0000 H       1  UNL1        0.0569
     20 H           2.3100    1.2269    0.0000 H       1  UNL1        0.0272
     21 H           1.4631    1.0000    0.0000 H       1  UNL1        0.0272
     22 H           1.6900    0.1531    0.0000 H       1  UNL1        0.0272
@<TRIPOS>BOND
     1     1     3    1
     2     1     9    1
     3     2     4    1
     4     2     9    1
     5     3     4   ar
     6     3     6   ar
     7     4     7   ar
     8     5     6   ar
     9     5     8   ar
    10     5    10    1
    11     6    13    1
    12     7     8   ar
    13     7    14    1
    14     8    15    1
    15     9    16    1
    16     9    17    1
    17    10    11    2
    18    10    18    1
    19    11    12    1
    20    11    19    1
    21    12    20    1
    22    12    21    1
    23    12    22    1
