@<TRIPOS>MOLECULE
IMPHY016667
 43 42 0 0 0
SMALL
GASTEIGER

@<TRIPOS>ATOM
      1 O           8.9282    0.2500    0.0000 O.3     1  UNL1       -0.4603
      2 O           9.7942   -1.2500    0.0000 O.2     1  UNL1       -0.2505
      3 C          10.6603    0.2500    0.0000 C.3     1  UNL1        0.0534
      4 C          11.5263   -0.2500    0.0000 C.3     1  UNL1       -0.0432
      5 C           5.4641    0.2500    0.0000 C.3     1  UNL1       -0.0285
      6 C           6.3301   -0.2500    0.0000 C.2     1  UNL1       -0.0731
      7 C           4.5981   -0.2500    0.0000 C.3     1  UNL1       -0.0308
      8 C          10.6603    1.2500    0.0000 C.3     1  UNL1       -0.0523
      9 C           9.7942   -0.2500    0.0000 C.2     1  UNL1        0.3102
     10 C          12.3923    0.2500    0.0000 C.3     1  UNL1       -0.0645
     11 C           7.1962    0.2500    0.0000 C.2     1  UNL1       -0.0480
     12 C           8.0622   -0.2500    0.0000 C.3     1  UNL1        0.1109
     13 C           3.7320    0.2500    0.0000 C.2     1  UNL1       -0.0850
     14 C           6.3301   -1.2500    0.0000 C.3     1  UNL1       -0.0437
     15 C           2.8660   -0.2500    0.0000 C.2     1  UNL1       -0.0796
     16 C           2.0000    0.2500    0.0000 C.3     1  UNL1       -0.0440
     17 C           2.8660   -1.2500    0.0000 C.3     1  UNL1       -0.0440
     18 H          11.1972    0.5600    0.0000 H       1  UNL1        0.0410
     19 H          11.1278   -0.7249    0.0000 H       1  UNL1        0.0270
     20 H          11.9248   -0.7249    0.0000 H       1  UNL1        0.0270
     21 H           5.8626    0.7249    0.0000 H       1  UNL1        0.0313
     22 H           5.0656    0.7249    0.0000 H       1  UNL1        0.0313
     23 H           4.1996   -0.7249    0.0000 H       1  UNL1        0.0310
     24 H           4.9966   -0.7249    0.0000 H       1  UNL1        0.0310
     25 H          11.2803    1.2500    0.0000 H       1  UNL1        0.0238
     26 H          10.6603    1.8700    0.0000 H       1  UNL1        0.0238
     27 H          10.0403    1.2500    0.0000 H       1  UNL1        0.0238
     28 H          12.7023   -0.2869    0.0000 H       1  UNL1        0.0230
     29 H          12.9292    0.5600    0.0000 H       1  UNL1        0.0230
     30 H          12.0823    0.7869    0.0000 H       1  UNL1        0.0230
     31 H           7.1962    0.8700    0.0000 H       1  UNL1        0.0605
     32 H           7.6636   -0.7249    0.0000 H       1  UNL1        0.0743
     33 H           8.4607   -0.7249    0.0000 H       1  UNL1        0.0743
     34 H           3.7320    0.8700    0.0000 H       1  UNL1        0.0572
     35 H           5.7101   -1.2500    0.0000 H       1  UNL1        0.0274
     36 H           6.3301   -1.8700    0.0000 H       1  UNL1        0.0274
     37 H           6.9501   -1.2500    0.0000 H       1  UNL1        0.0274
     38 H           2.3100    0.7869    0.0000 H       1  UNL1        0.0274
     39 H           1.4631    0.5600    0.0000 H       1  UNL1        0.0274
     40 H           1.6900   -0.2869    0.0000 H       1  UNL1        0.0274
     41 H           2.2460   -1.2500    0.0000 H       1  UNL1        0.0274
     42 H           2.8660   -1.8700    0.0000 H       1  UNL1        0.0274
     43 H           3.4860   -1.2500    0.0000 H       1  UNL1        0.0274
@<TRIPOS>BOND
     1     1     9    1
     2     1    12    1
     3     2     9    2
     4     3     4    1
     5     3     8    1
     6     3     9    1
     7     3    18    1
     8     4    10    1
     9     4    19    1
    10     4    20    1
    11     5     6    1
    12     5     7    1
    13     5    21    1
    14     5    22    1
    15     6    11    2
    16     6    14    1
    17     7    13    1
    18     7    23    1
    19     7    24    1
    20     8    25    1
    21     8    26    1
    22     8    27    1
    23    10    28    1
    24    10    29    1
    25    10    30    1
    26    11    12    1
    27    11    31    1
    28    12    32    1
    29    12    33    1
    30    13    15    2
    31    13    34    1
    32    14    35    1
    33    14    36    1
    34    14    37    1
    35    15    16    1
    36    15    17    1
    37    16    38    1
    38    16    39    1
    39    16    40    1
    40    17    41    1
    41    17    42    1
    42    17    43    1
