@<TRIPOS>MOLECULE
IMPHY010247
 51 53 0 0 0
SMALL
GASTEIGER

@<TRIPOS>ATOM
      1 O           6.8671   -1.0950    0.0000 O.3     1  UNL1       -0.3096
      2 O           6.0010    0.4050    0.0000 O.2     1  UNL1       -0.4702
      3 O           5.1350   -1.0950    0.0000 O.3     1  UNL1       -0.3404
      4 O          10.2629    0.9050    0.0000 O.2     1  UNL1       -0.2971
      5 O           6.8671   -3.0950    0.0000 O.3     1  UNL1       -0.3841
      6 O           5.1350   -4.0950    0.0000 O.3     1  UNL1       -0.3864
      7 O           3.4030   -3.0950    0.0000 O.3     1  UNL1       -0.3865
      8 O           6.0010    3.4050    0.0000 O.3     1  UNL1       -0.4646
      9 O           7.7331    3.4050    0.0000 O.2     1  UNL1       -0.2452
     10 O           2.5369   -1.5950    0.0000 O.3     1  UNL1       -0.3924
     11 C           7.7331    0.4050    0.0000 C.3     1  UNL1        0.0384
     12 C           7.7331    1.4050    0.0000 C.3     1  UNL1        0.0096
     13 C           8.6793    0.1003    0.0000 C.3     1  UNL1        0.0238
     14 C           6.8671   -0.0950    0.0000 C.3     1  UNL1        0.2075
     15 C           8.6793    1.7097    0.0000 C.3     1  UNL1        0.0137
     16 C           9.2629    0.9050    0.0000 C.2     1  UNL1        0.1372
     17 C           6.8671    1.9050    0.0000 C.2     1  UNL1        0.0747
     18 C           8.9900   -0.8503    0.0000 C.3     1  UNL1       -0.0552
     19 C           6.0010   -1.5950    0.0000 C.3     1  UNL1        0.1918
     20 C           6.0010   -2.5950    0.0000 C.3     1  UNL1        0.1342
     21 C           5.1350   -3.0950    0.0000 C.3     1  UNL1        0.1141
     22 C           4.2690   -2.5950    0.0000 C.3     1  UNL1        0.1119
     23 C           6.0010    1.4050    0.0000 C.2     1  UNL1        0.0981
     24 C           4.2690   -1.5950    0.0000 C.3     1  UNL1        0.1130
     25 C           6.8671    2.9050    0.0000 C.2     1  UNL1        0.3381
     26 C           3.4030   -1.0950    0.0000 C.3     1  UNL1        0.0730
     27 C           6.0010    4.4050    0.0000 C.3     1  UNL1        0.0820
     28 H           7.8230   -0.4402    0.0000 H       1  UNL1        0.0374
     29 H           7.8230    2.2502    0.0000 H       1  UNL1        0.0361
     30 H           8.0796   -0.5021    0.0000 H       1  UNL1        0.0379
     31 H           7.6032   -0.5200    0.0000 H       1  UNL1        0.1059
     32 H           9.2167    2.0190    0.0000 H       1  UNL1        0.0348
     33 H           8.4283    2.2766    0.0000 H       1  UNL1        0.0348
     34 H           6.0010   -0.9750    0.0000 H       1  UNL1        0.0939
     35 H           8.4006   -1.0429    0.0000 H       1  UNL1        0.0237
     36 H           9.1826   -1.4396    0.0000 H       1  UNL1        0.0237
     37 H           9.5793   -0.6576    0.0000 H       1  UNL1        0.0237
     38 H           6.0010   -3.2150    0.0000 H       1  UNL1        0.0671
     39 H           4.5981   -3.4050    0.0000 H       1  UNL1        0.0648
     40 H           3.7320   -2.2850    0.0000 H       1  UNL1        0.0647
     41 H           4.2690   -0.9750    0.0000 H       1  UNL1        0.0647
     42 H           5.4641    1.7150    0.0000 H       1  UNL1        0.1029
     43 H           3.8015   -0.6201    0.0000 H       1  UNL1        0.0584
     44 H           3.0044   -0.6201    0.0000 H       1  UNL1        0.0584
     45 H           6.8671   -3.7150    0.0000 H       1  UNL1        0.2101
     46 H           4.5981   -4.4050    0.0000 H       1  UNL1        0.2100
     47 H           3.4030   -3.7150    0.0000 H       1  UNL1        0.2100
     48 H           2.0000   -1.2850    0.0000 H       1  UNL1        0.2095
     49 H           6.6210    4.4050    0.0000 H       1  UNL1        0.0661
     50 H           6.0010    5.0250    0.0000 H       1  UNL1        0.0661
     51 H           5.3810    4.4050    0.0000 H       1  UNL1        0.0661
@<TRIPOS>BOND
     1     1    14    1
     2    19     1    1
     3     2    14    1
     4     2    23    1
     5     3    19    1
     6     3    24    1
     7     4    16    2
     8    20     5    1
     9     5    45    1
    10    21     6    1
    11     6    46    1
    12    22     7    1
    13     7    47    1
    14     8    25    1
    15     8    27    1
    16     9    25    2
    17    10    26    1
    18    10    48    1
    19    11    12    1
    20    11    13    1
    21    11    14    1
    22    11    28    1
    23    12    15    1
    24    12    17    1
    25    12    29    1
    26    13    16    1
    27    13    18    1
    28    13    30    1
    29    14    31    1
    30    15    16    1
    31    15    32    1
    32    15    33    1
    33    17    23    2
    34    17    25    1
    35    18    35    1
    36    18    36    1
    37    18    37    1
    38    19    20    1
    39    19    34    1
    40    20    21    1
    41    20    38    1
    42    21    22    1
    43    21    39    1
    44    22    24    1
    45    22    40    1
    46    23    42    1
    47    24    26    1
    48    24    41    1
    49    26    43    1
    50    26    44    1
    51    27    49    1
    52    27    50    1
    53    27    51    1
