@<TRIPOS>MOLECULE
IMPHY010726
 37 41 0 0 0
SMALL
GASTEIGER

@<TRIPOS>ATOM
      1 O          10.7371   -3.8990    0.0000 O.3     1  UNL1       -0.4470
      2 C           9.6231   -3.2472    0.0000 C.3     1  UNL1        0.1973
      3 C           8.5328   -3.8990    0.0000 C.3     1  UNL1        0.0561
      4 C           7.4188   -3.2472    0.0000 C.3     1  UNL1        0.0076
      5 C           6.3048   -3.8990    0.0000 C.3     1  UNL1        0.0006
      6 C           6.3048   -5.1789    0.0000 C.3     1  UNL1        0.0017
      7 C           7.4188   -5.8189    0.0000 C.2     1  UNL1       -0.0548
      8 C           8.5328   -5.1789    0.0000 C.2     1  UNL1       -0.0383
      9 C           9.6231   -5.8189    0.0000 C.3     1  UNL1        0.1311
     10 C          10.7371   -5.1789    0.0000 C.2     1  UNL1        0.3213
     11 C           5.0723   -5.4989    0.0000 C.3     1  UNL1        0.0509
     12 C           4.4323   -6.6129    0.0000 C.3     1  UNL1        0.0283
     13 C           4.7641   -7.8573    0.0000 C.3     1  UNL1        0.0284
     14 C           5.8663   -8.4854    0.0000 C.3     1  UNL1        0.1588
     15 C           7.1107   -8.1654    0.0000 C.3     1  UNL1        0.0919
     16 C           6.7670   -6.5418    0.0000 C.2     1  UNL1        0.1520
     17 C           7.7388   -7.0514    0.0000 C.3     1  UNL1        0.0310
     18 C           9.6231   -1.9791    0.0000 C.ar    1  UNL1        0.0583
     19 C           8.5921   -1.2207    0.0000 C.ar    1  UNL1        0.1789
     20 O           8.9950    0.0000    0.0000 O.2     1  UNL1       -0.4475
     21 C          10.2749    0.0000    0.0000 C.ar    1  UNL1        0.1795
     22 C          10.6660   -1.2207    0.0000 C.ar    1  UNL1        0.0430
     23 C           8.5328   -2.6191    0.0000 C.3     1  UNL1        0.0080
     24 O          11.8511   -5.8189    0.0000 O.2     1  UNL1       -0.2497
     25 C           4.2901   -4.4797    0.0000 C.3     1  UNL1        0.0071
     26 C           2.5598   -6.6129    0.0000 C.3     1  UNL1        0.2464
     27 O           1.9199   -7.7269    0.0000 O.3     1  UNL1       -0.2114
     28 C           4.3612   -9.0543    0.0000 C.3     1  UNL1        0.0023
     29 C           3.5079   -8.1180    0.0000 C.3     1  UNL1        0.0023
     30 O           5.8545   -9.7535    0.0000 O.3     1  UNL1       -0.2227
     31 O           5.5463   -7.2647    0.0000 O.2     1  UNL1       -0.2960
     32 C           1.9317   -5.4989    0.0000 C.2     1  UNL1        0.3475
     33 O           2.5598   -4.3968    0.0000 O.2     1  UNL1       -0.2473
     34 O           0.6518   -5.4989    0.0000 O.3     1  UNL1       -0.4427
     35 C           0.0000   -4.3968    0.0000 C.3     1  UNL1        0.2557
     36 H           3.3065   -5.5937    0.0000 H       1  UNL1        0.0353
     37 H           5.4752   -4.2071    0.0000 H       1  UNL1        0.0362
@<TRIPOS>BOND
     1     1     2    1
     2     1    10    1
     3     2     3    1
     4     2    18    1
     5     3     4    1
     6     3     8    1
     7     3    23    1
     8     4     5    1
     9     5     6    1
    10     6     7    1
    11     6    11    1
    12     6    37    1
    13     7     8    2
    14     7    17    1
    15     8     9    1
    16     9    10    1
    17    10    24    2
    18    11    16    1
    19    11    12    1
    20    11    25    1
    21    12    13    1
    22    12    26    1
    23    12    36    1
    24    13    14    1
    25    13    29    1
    26    13    28    1
    27    14    15    1
    28    14    30    1
    29    15    17    1
    30    15    16    1
    31    16    31    2
    32    18    22   ar
    33    18    19   ar
    34    19    20   ar
    35    20    21   ar
    36    21    22   ar
    37    26    27    1
    38    26    32    1
    39    32    34    1
    40    32    33    2
    41    34    35    1
