@<TRIPOS>MOLECULE
IMPHY017024
 95 94 0 0 0
SMALL
GASTEIGER

@<TRIPOS>ATOM
      1 O          23.3215   -0.2500    0.0000 O.3     1  UNL1       -0.3775
      2 O          20.7235    0.2500    0.0000 O.3     1  UNL1       -0.3752
      3 O          18.1254   -0.2500    0.0000 O.3     1  UNL1       -0.3752
      4 O          15.5273    0.2500    0.0000 O.3     1  UNL1       -0.3752
      5 O          12.9292   -0.2500    0.0000 O.3     1  UNL1       -0.3752
      6 O          10.3312    0.2500    0.0000 O.3     1  UNL1       -0.3752
      7 O           7.7331   -0.2500    0.0000 O.3     1  UNL1       -0.3752
      8 O           5.1350    0.2500    0.0000 O.3     1  UNL1       -0.3752
      9 O           2.5369   -0.2500    0.0000 O.3     1  UNL1       -0.3927
     10 C          28.5177   -0.2500    0.0000 C.3     1  UNL1       -0.0531
     11 C          29.3837    0.2500    0.0000 C.3     1  UNL1       -0.0531
     12 C          27.6517    0.2500    0.0000 C.3     1  UNL1       -0.0531
     13 C          30.2497   -0.2500    0.0000 C.3     1  UNL1       -0.0531
     14 C          26.7856   -0.2500    0.0000 C.3     1  UNL1       -0.0530
     15 C          31.1158    0.2500    0.0000 C.3     1  UNL1       -0.0531
     16 C          25.9196    0.2500    0.0000 C.3     1  UNL1       -0.0510
     17 C          31.9818   -0.2500    0.0000 C.3     1  UNL1       -0.0533
     18 C          25.0536   -0.2500    0.0000 C.3     1  UNL1       -0.0295
     19 C          32.8478    0.2500    0.0000 C.3     1  UNL1       -0.0559
     20 C          24.1876    0.2500    0.0000 C.3     1  UNL1        0.0478
     21 C          33.7139   -0.2500    0.0000 C.3     1  UNL1       -0.0653
     22 C          22.4555    0.2500    0.0000 C.3     1  UNL1        0.0710
     23 C          21.5895   -0.2500    0.0000 C.3     1  UNL1        0.0711
     24 C          19.8574   -0.2500    0.0000 C.3     1  UNL1        0.0711
     25 C          18.9914    0.2500    0.0000 C.3     1  UNL1        0.0711
     26 C          17.2594    0.2500    0.0000 C.3     1  UNL1        0.0711
     27 C          16.3933   -0.2500    0.0000 C.3     1  UNL1        0.0711
     28 C          14.6613   -0.2500    0.0000 C.3     1  UNL1        0.0711
     29 C          13.7953    0.2500    0.0000 C.3     1  UNL1        0.0711
     30 C          12.0632    0.2500    0.0000 C.3     1  UNL1        0.0711
     31 C          11.1972   -0.2500    0.0000 C.3     1  UNL1        0.0711
     32 C           9.4651   -0.2500    0.0000 C.3     1  UNL1        0.0711
     33 C           8.5991    0.2500    0.0000 C.3     1  UNL1        0.0711
     34 C           6.8671    0.2500    0.0000 C.3     1  UNL1        0.0711
     35 C           6.0010   -0.2500    0.0000 C.3     1  UNL1        0.0711
     36 C           4.2690   -0.2500    0.0000 C.3     1  UNL1        0.0708
     37 C           3.4030    0.2500    0.0000 C.3     1  UNL1        0.0676
     38 H          28.1192   -0.7249    0.0000 H       1  UNL1        0.0265
     39 H          28.9162   -0.7249    0.0000 H       1  UNL1        0.0265
     40 H          29.7823    0.7249    0.0000 H       1  UNL1        0.0265
     41 H          28.9852    0.7249    0.0000 H       1  UNL1        0.0265
     42 H          28.0502    0.7249    0.0000 H       1  UNL1        0.0265
     43 H          27.2531    0.7249    0.0000 H       1  UNL1        0.0265
     44 H          29.8512   -0.7249    0.0000 H       1  UNL1        0.0265
     45 H          30.6483   -0.7249    0.0000 H       1  UNL1        0.0265
     46 H          26.3871   -0.7249    0.0000 H       1  UNL1        0.0265
     47 H          27.1842   -0.7249    0.0000 H       1  UNL1        0.0265
     48 H          31.5143    0.7249    0.0000 H       1  UNL1        0.0265
     49 H          30.7172    0.7249    0.0000 H       1  UNL1        0.0265
     50 H          26.3182    0.7249    0.0000 H       1  UNL1        0.0266
     51 H          25.5211    0.7249    0.0000 H       1  UNL1        0.0266
     52 H          31.5833   -0.7249    0.0000 H       1  UNL1        0.0265
     53 H          32.3803   -0.7249    0.0000 H       1  UNL1        0.0265
     54 H          24.6551   -0.7249    0.0000 H       1  UNL1        0.0287
     55 H          25.4521   -0.7249    0.0000 H       1  UNL1        0.0287
     56 H          33.2464    0.7249    0.0000 H       1  UNL1        0.0263
     57 H          32.4493    0.7249    0.0000 H       1  UNL1        0.0263
     58 H          24.5861    0.7249    0.0000 H       1  UNL1        0.0560
     59 H          23.7890    0.7249    0.0000 H       1  UNL1        0.0560
     60 H          33.4039   -0.7869    0.0000 H       1  UNL1        0.0230
     61 H          34.2508   -0.5600    0.0000 H       1  UNL1        0.0230
     62 H          34.0238    0.2869    0.0000 H       1  UNL1        0.0230
     63 H          22.8540    0.7249    0.0000 H       1  UNL1        0.0583
     64 H          22.0570    0.7249    0.0000 H       1  UNL1        0.0583
     65 H          21.1910   -0.7249    0.0000 H       1  UNL1        0.0583
     66 H          21.9880   -0.7249    0.0000 H       1  UNL1        0.0583
     67 H          19.4589   -0.7249    0.0000 H       1  UNL1        0.0583
     68 H          20.2560   -0.7249    0.0000 H       1  UNL1        0.0583
     69 H          19.3899    0.7249    0.0000 H       1  UNL1        0.0583
     70 H          18.5929    0.7249    0.0000 H       1  UNL1        0.0583
     71 H          17.6579    0.7249    0.0000 H       1  UNL1        0.0583
     72 H          16.8608    0.7249    0.0000 H       1  UNL1        0.0583
     73 H          15.9948   -0.7249    0.0000 H       1  UNL1        0.0583
     74 H          16.7919   -0.7249    0.0000 H       1  UNL1        0.0583
     75 H          14.2628   -0.7249    0.0000 H       1  UNL1        0.0583
     76 H          15.0598   -0.7249    0.0000 H       1  UNL1        0.0583
     77 H          14.1938    0.7249    0.0000 H       1  UNL1        0.0583
     78 H          13.3967    0.7249    0.0000 H       1  UNL1        0.0583
     79 H          12.4617    0.7249    0.0000 H       1  UNL1        0.0583
     80 H          11.6647    0.7249    0.0000 H       1  UNL1        0.0583
     81 H          10.7987   -0.7249    0.0000 H       1  UNL1        0.0583
     82 H          11.5957   -0.7249    0.0000 H       1  UNL1        0.0583
     83 H           9.0666   -0.7249    0.0000 H       1  UNL1        0.0583
     84 H           9.8637   -0.7249    0.0000 H       1  UNL1        0.0583
     85 H           8.9976    0.7249    0.0000 H       1  UNL1        0.0583
     86 H           8.2006    0.7249    0.0000 H       1  UNL1        0.0583
     87 H           7.2656    0.7249    0.0000 H       1  UNL1        0.0583
     88 H           6.4685    0.7249    0.0000 H       1  UNL1        0.0583
     89 H           5.6025   -0.7249    0.0000 H       1  UNL1        0.0583
     90 H           6.3996   -0.7249    0.0000 H       1  UNL1        0.0583
     91 H           3.8705   -0.7249    0.0000 H       1  UNL1        0.0583
     92 H           4.6675   -0.7249    0.0000 H       1  UNL1        0.0583
     93 H           3.8015    0.7249    0.0000 H       1  UNL1        0.0580
     94 H           3.0044    0.7249    0.0000 H       1  UNL1        0.0580
     95 H           2.0000    0.0600    0.0000 H       1  UNL1        0.2095
@<TRIPOS>BOND
     1     1    20    1
     2     1    22    1
     3     2    23    1
     4     2    24    1
     5     3    25    1
     6     3    26    1
     7     4    27    1
     8     4    28    1
     9     5    29    1
    10     5    30    1
    11     6    31    1
    12     6    32    1
    13     7    33    1
    14     7    34    1
    15     8    35    1
    16     8    36    1
    17     9    37    1
    18     9    95    1
    19    10    11    1
    20    10    12    1
    21    10    38    1
    22    10    39    1
    23    11    13    1
    24    11    40    1
    25    11    41    1
    26    12    14    1
    27    12    42    1
    28    12    43    1
    29    13    15    1
    30    13    44    1
    31    13    45    1
    32    14    16    1
    33    14    46    1
    34    14    47    1
    35    15    17    1
    36    15    48    1
    37    15    49    1
    38    16    18    1
    39    16    50    1
    40    16    51    1
    41    17    19    1
    42    17    52    1
    43    17    53    1
    44    18    20    1
    45    18    54    1
    46    18    55    1
    47    19    21    1
    48    19    56    1
    49    19    57    1
    50    20    58    1
    51    20    59    1
    52    21    60    1
    53    21    61    1
    54    21    62    1
    55    22    23    1
    56    22    63    1
    57    22    64    1
    58    23    65    1
    59    23    66    1
    60    24    25    1
    61    24    67    1
    62    24    68    1
    63    25    69    1
    64    25    70    1
    65    26    27    1
    66    26    71    1
    67    26    72    1
    68    27    73    1
    69    27    74    1
    70    28    29    1
    71    28    75    1
    72    28    76    1
    73    29    77    1
    74    29    78    1
    75    30    31    1
    76    30    79    1
    77    30    80    1
    78    31    81    1
    79    31    82    1
    80    32    33    1
    81    32    83    1
    82    32    84    1
    83    33    85    1
    84    33    86    1
    85    34    35    1
    86    34    87    1
    87    34    88    1
    88    35    89    1
    89    35    90    1
    90    36    37    1
    91    36    91    1
    92    36    92    1
    93    37    93    1
    94    37    94    1
