@<TRIPOS>MOLECULE
IMPHY009057
 78 82 0 0 0
SMALL
GASTEIGER

@<TRIPOS>ATOM
      1 O           2.0000   -2.5933    0.0000 O.2     1  UNL1       -0.2968
      2 O          10.9251    0.4932    0.0000 O.2     1  UNL1       -0.3004
      3 C           6.5271   -1.0410    0.0000 C.3     1  UNL1       -0.0194
      4 C           5.6610   -0.5410    0.0000 C.3     1  UNL1       -0.0257
      5 C           7.3931   -0.5410    0.0000 C.3     1  UNL1       -0.0051
      6 C           4.7510   -1.0478    0.0000 C.3     1  UNL1       -0.0243
      7 C           4.7430   -2.0894    0.0000 C.3     1  UNL1       -0.0235
      8 C           6.5431   -2.0825    0.0000 C.3     1  UNL1       -0.0463
      9 C           7.3931    0.4590    0.0000 C.2     1  UNL1       -0.0630
     10 C           8.2870    0.9937    0.0000 C.3     1  UNL1       -0.0068
     11 C           5.6451   -2.6102    0.0000 C.3     1  UNL1       -0.0483
     12 C           8.2870   -1.0756    0.0000 C.3     1  UNL1       -0.0425
     13 C           5.6610    0.4590    0.0000 C.3     1  UNL1       -0.0306
     14 C           9.1931    0.4799    0.0000 C.3     1  UNL1        0.0325
     15 C           3.8076   -2.6391    0.0000 C.3     1  UNL1        0.0267
     16 C           3.8242   -0.4837    0.0000 C.3     1  UNL1       -0.0404
     17 C           9.1931   -0.5618    0.0000 C.3     1  UNL1       -0.0396
     18 C           7.1698   -1.8070    0.0000 C.3     1  UNL1       -0.0585
     19 C           6.5271    0.9590    0.0000 C.2     1  UNL1       -0.0836
     20 C           7.7352   -1.4806    0.0000 C.3     1  UNL1       -0.0553
     21 C           4.7587   -0.0478    0.0000 C.3     1  UNL1       -0.0590
     22 C           8.2619    2.0784    0.0000 C.3     1  UNL1       -0.0404
     23 C          10.1369    1.0151    0.0000 C.3     1  UNL1       -0.0399
     24 C           2.8763   -1.0117    0.0000 C.3     1  UNL1        0.0069
     25 C           9.1931    2.6353    0.0000 C.3     1  UNL1       -0.0343
     26 C           2.8680   -2.0966    0.0000 C.2     1  UNL1        0.1392
     27 C          10.1369    2.1001    0.0000 C.3     1  UNL1       -0.0470
     28 C           3.3109   -3.5071    0.0000 C.3     1  UNL1       -0.0528
     29 C           4.3109   -3.5032    0.0000 C.3     1  UNL1       -0.0528
     30 C          10.0629   -0.0135    0.0000 C.2     1  UNL1        0.1270
     31 C           9.6830    3.5071    0.0000 C.3     1  UNL1       -0.0598
     32 C           8.6831    3.4955    0.0000 C.3     1  UNL1       -0.0598
     33 H           6.3972   -0.1160    0.0000 H       1  UNL1        0.0315
     34 H           4.7463   -2.9394    0.0000 H       1  UNL1        0.0315
     35 H           6.7612   -2.6629    0.0000 H       1  UNL1        0.0271
     36 H           7.1523   -1.9670    0.0000 H       1  UNL1        0.0271
     37 H           9.0165    1.4300    0.0000 H       1  UNL1        0.0355
     38 H           5.2478   -3.0862    0.0000 H       1  UNL1        0.0269
     39 H           6.0460   -3.0831    0.0000 H       1  UNL1        0.0269
     40 H           7.8824   -1.5454    0.0000 H       1  UNL1        0.0274
     41 H           8.6806   -1.5546    0.0000 H       1  UNL1        0.0274
     42 H           5.4490    1.0416    0.0000 H       1  UNL1        0.0310
     43 H           5.0504    0.3514    0.0000 H       1  UNL1        0.0310
     44 H           4.2324   -0.0171    0.0000 H       1  UNL1        0.0275
     45 H           3.4343   -0.0017    0.0000 H       1  UNL1        0.0275
     46 H           9.4022   -1.1455    0.0000 H       1  UNL1        0.0275
     47 H           9.8040   -0.4557    0.0000 H       1  UNL1        0.0275
     48 H           6.6949   -2.2055    0.0000 H       1  UNL1        0.0235
     49 H           7.5684   -2.2820    0.0000 H       1  UNL1        0.0235
     50 H           7.6448   -1.4085    0.0000 H       1  UNL1        0.0235
     51 H           6.5271    1.5790    0.0000 H       1  UNL1        0.0572
     52 H           7.1526   -1.6927    0.0000 H       1  UNL1        0.0238
     53 H           7.9473   -2.0632    0.0000 H       1  UNL1        0.0238
     54 H           8.3178   -1.2685    0.0000 H       1  UNL1        0.0238
     55 H           5.3787   -0.0526    0.0000 H       1  UNL1        0.0235
     56 H           4.7635    0.5721    0.0000 H       1  UNL1        0.0235
     57 H           4.1388   -0.0431    0.0000 H       1  UNL1        0.0235
     58 H           8.0394    2.6571    0.0000 H       1  UNL1        0.0276
     59 H           7.6537    1.9582    0.0000 H       1  UNL1        0.0276
     60 H          10.3459    0.4314    0.0000 H       1  UNL1        0.0275
     61 H          10.7477    1.1212    0.0000 H       1  UNL1        0.0275
     62 H           2.6718   -0.4264    0.0000 H       1  UNL1        0.0342
     63 H           2.2647   -1.1131    0.0000 H       1  UNL1        0.0342
     64 H          10.7477    1.9940    0.0000 H       1  UNL1        0.0271
     65 H          10.3459    2.6838    0.0000 H       1  UNL1        0.0271
     66 H           2.7728   -3.1992    0.0000 H       1  UNL1        0.0239
     67 H           3.0030   -4.0452    0.0000 H       1  UNL1        0.0239
     68 H           3.8490   -3.8150    0.0000 H       1  UNL1        0.0239
     69 H           3.7752   -3.8153    0.0000 H       1  UNL1        0.0239
     70 H           4.6230   -4.0390    0.0000 H       1  UNL1        0.0239
     71 H           4.8466   -3.1912    0.0000 H       1  UNL1        0.0239
     72 H          10.0677   -0.6334    0.0000 H       1  UNL1        0.1032
     73 H           9.2164    3.8117    0.0000 H       1  UNL1        0.0235
     74 H           8.3669    4.0288    0.0000 H       1  UNL1        0.0235
     75 H           8.1498    3.1793    0.0000 H       1  UNL1        0.0235
     76 H          10.2235    3.2033    0.0000 H       1  UNL1        0.0235
     77 H           9.9868    4.0476    0.0000 H       1  UNL1        0.0235
     78 H           9.1426    3.8108    0.0000 H       1  UNL1        0.0235
@<TRIPOS>BOND
     1     1    26    2
     2     2    30    2
     3     3     4    1
     4     3     5    1
     5     3     8    1
     6     3    18    1
     7     4     6    1
     8     4    13    1
     9     4    33    1
    10     5     9    1
    11     5    12    1
    12     5    20    1
    13     6     7    1
    14     6    16    1
    15     6    21    1
    16     7    11    1
    17     7    15    1
    18     7    34    1
    19     8    11    1
    20     8    35    1
    21     8    36    1
    22     9    10    1
    23     9    19    2
    24    10    14    1
    25    10    22    1
    26    10    37    1
    27    11    38    1
    28    11    39    1
    29    12    17    1
    30    12    40    1
    31    12    41    1
    32    13    19    1
    33    13    42    1
    34    13    43    1
    35    14    17    1
    36    14    23    1
    37    14    30    1
    38    15    26    1
    39    15    28    1
    40    15    29    1
    41    16    24    1
    42    16    44    1
    43    16    45    1
    44    17    46    1
    45    17    47    1
    46    18    48    1
    47    18    49    1
    48    18    50    1
    49    19    51    1
    50    20    52    1
    51    20    53    1
    52    20    54    1
    53    21    55    1
    54    21    56    1
    55    21    57    1
    56    22    25    1
    57    22    58    1
    58    22    59    1
    59    23    27    1
    60    23    60    1
    61    23    61    1
    62    24    26    1
    63    24    62    1
    64    24    63    1
    65    25    27    1
    66    25    31    1
    67    25    32    1
    68    27    64    1
    69    27    65    1
    70    28    66    1
    71    28    67    1
    72    28    68    1
    73    29    69    1
    74    29    70    1
    75    29    71    1
    76    30    72    1
    77    31    76    1
    78    31    77    1
    79    31    78    1
    80    32    73    1
    81    32    74    1
    82    32    75    1
