@<TRIPOS>MOLECULE
IMPHY000336
 97 103 0 0 0
SMALL
GASTEIGER

@<TRIPOS>ATOM
      1 O           6.3923    0.4839    0.0000 O.3     1  UNL1       -0.4519
      2 O           5.5627   -4.0408    0.0000 O.3     1  UNL1       -0.4914
      3 O           3.8463   -5.0674    0.0000 O.3     1  UNL1       -0.4914
      4 O           9.0346    4.0395    0.0000 O.3     1  UNL1       -0.4908
      5 O          10.8005    5.0773    0.0000 O.3     1  UNL1       -0.4914
      6 O           6.3923    2.5322    0.0000 O.3     1  UNL1       -0.4914
      7 O           6.4077   -3.5160    0.0000 O.3     1  UNL1       -0.4914
      8 O           8.1359   -2.5094    0.0000 O.3     1  UNL1       -0.4913
      9 N           2.8939   -0.5122    0.0000 N.3     1  UNL1       -0.2978
     10 N          11.6467    0.5111    0.0000 N.pl3   1  UNL1       -0.3321
     11 C           3.8000   -1.0261    0.0000 C.3     1  UNL1        0.0398
     12 C           3.8000   -2.0677    0.0000 C.ar    1  UNL1       -0.0231
     13 C           2.0000   -1.0469    0.0000 C.3     1  UNL1        0.0032
     14 C           4.6641   -0.5228    0.0000 C.3     1  UNL1       -0.0043
     15 C           2.0241   -2.0882    0.0000 C.3     1  UNL1       -0.0144
     16 C           2.9418   -2.5810    0.0000 C.ar    1  UNL1       -0.0378
     17 C          10.7884    2.0081    0.0000 C.ar    1  UNL1        0.0107
     18 C           5.5320   -1.0194    0.0000 C.ar    1  UNL1        0.0004
     19 C           4.6736   -2.5543    0.0000 C.ar    1  UNL1       -0.0114
     20 C           2.8824    0.4877    0.0000 C.3     1  UNL1       -0.0122
     21 C          10.7884    1.0081    0.0000 C.ar    1  UNL1        0.0382
     22 C          11.6984    2.5149    0.0000 C.ar    1  UNL1       -0.0327
     23 C           2.9572   -3.5809    0.0000 C.ar    1  UNL1       -0.0128
     24 C          12.5378    1.9867    0.0000 C.3     1  UNL1       -0.0112
     25 C           9.9224    2.5081    0.0000 C.ar    1  UNL1        0.0373
     26 C          12.5121    0.9953    0.0000 C.3     1  UNL1        0.0159
     27 C           9.0564    2.0081    0.0000 C.ar    1  UNL1       -0.0027
     28 C           9.0564    1.0081    0.0000 C.ar    1  UNL1       -0.0117
     29 C           4.6891   -3.5542    0.0000 C.ar    1  UNL1        0.1618
     30 C           3.8308   -4.0675    0.0000 C.ar    1  UNL1        0.1618
     31 C           9.9224    0.5081    0.0000 C.ar    1  UNL1       -0.0322
     32 C           6.3961   -0.5161    0.0000 C.ar    1  UNL1        0.1355
     33 C           9.9064    3.5496    0.0000 C.ar    1  UNL1        0.1698
     34 C          11.7065    3.5565    0.0000 C.ar    1  UNL1       -0.0124
     35 C           5.5359   -2.0194    0.0000 C.ar    1  UNL1       -0.0096
     36 C          10.8044    4.0773    0.0000 C.ar    1  UNL1        0.1624
     37 C           8.1624    0.4734    0.0000 C.ar    1  UNL1       -0.0079
     38 C           8.1624    2.5427    0.0000 C.ar    1  UNL1       -0.0079
     39 C           7.2564    0.9872    0.0000 C.ar    1  UNL1        0.1704
     40 C          11.6393   -0.4888    0.0000 C.3     1  UNL1        0.0007
     41 C           7.2564    2.0289    0.0000 C.ar    1  UNL1        0.1627
     42 C           7.2641   -1.0127    0.0000 C.ar    1  UNL1        0.0263
     43 C           6.4038   -2.5161    0.0000 C.ar    1  UNL1        0.1620
     44 C           7.2679   -2.0127    0.0000 C.ar    1  UNL1        0.1650
     45 C           5.5781   -5.0407    0.0000 C.3     1  UNL1        0.0790
     46 C           2.9880   -5.5806    0.0000 C.3     1  UNL1        0.0790
     47 C           9.0230    5.0395    0.0000 C.3     1  UNL1        0.0790
     48 C          11.6646    5.5806    0.0000 C.3     1  UNL1        0.0790
     49 C           6.3961    3.5322    0.0000 C.3     1  UNL1        0.0790
     50 C           7.2756   -4.0127    0.0000 C.3     1  UNL1        0.0790
     51 C           9.0000   -2.0060    0.0000 C.3     1  UNL1        0.0790
     52 H           3.7964   -0.4061    0.0000 H       1  UNL1        0.0515
     53 H           1.7775   -0.4682    0.0000 H       1  UNL1        0.0430
     54 H           1.3918   -1.1671    0.0000 H       1  UNL1        0.0430
     55 H           5.0608   -0.0463    0.0000 H       1  UNL1        0.0333
     56 H           4.2637   -0.0493    0.0000 H       1  UNL1        0.0333
     57 H           1.4109   -1.9963    0.0000 H       1  UNL1        0.0326
     58 H           1.8286   -2.6766    0.0000 H       1  UNL1        0.0326
     59 H           5.2057   -2.2361    0.0000 H       1  UNL1        0.0659
     60 H           3.5023    0.4949    0.0000 H       1  UNL1        0.0391
     61 H           2.8752    1.1076    0.0000 H       1  UNL1        0.0391
     62 H           2.2624    0.4805    0.0000 H       1  UNL1        0.0391
     63 H          13.1448    1.8608    0.0000 H       1  UNL1        0.0329
     64 H          12.7695    2.5617    0.0000 H       1  UNL1        0.0329
     65 H           2.4251   -3.8991    0.0000 H       1  UNL1        0.0658
     66 H          12.7139    0.4090    0.0000 H       1  UNL1        0.0467
     67 H          13.1249    1.0897    0.0000 H       1  UNL1        0.0467
     68 H           9.9224   -0.1119    0.0000 H       1  UNL1        0.0642
     69 H          12.2446    3.8644    0.0000 H       1  UNL1        0.0658
     70 H           5.0002   -2.3315    0.0000 H       1  UNL1        0.0659
     71 H           8.1696   -0.1466    0.0000 H       1  UNL1        0.0662
     72 H           8.1696    3.1627    0.0000 H       1  UNL1        0.0662
     73 H          11.0193   -0.4842    0.0000 H       1  UNL1        0.0428
     74 H          11.6347   -1.1088    0.0000 H       1  UNL1        0.0428
     75 H          12.2592   -0.4934    0.0000 H       1  UNL1        0.0428
     76 H           7.7998   -0.7007    0.0000 H       1  UNL1        0.0692
     77 H           4.9582   -5.0502    0.0000 H       1  UNL1        0.0660
     78 H           5.5877   -5.6606    0.0000 H       1  UNL1        0.0660
     79 H           6.1980   -5.0311    0.0000 H       1  UNL1        0.0660
     80 H           2.6698   -5.0486    0.0000 H       1  UNL1        0.0660
     81 H           2.4560   -5.8989    0.0000 H       1  UNL1        0.0660
     82 H           3.3063   -6.1128    0.0000 H       1  UNL1        0.0660
     83 H           9.6430    5.0466    0.0000 H       1  UNL1        0.0660
     84 H           9.0159    5.6594    0.0000 H       1  UNL1        0.0660
     85 H           8.4031    5.0323    0.0000 H       1  UNL1        0.0660
     86 H          11.9767    5.0449    0.0000 H       1  UNL1        0.0660
     87 H          12.2004    5.8927    0.0000 H       1  UNL1        0.0660
     88 H          11.3526    6.1164    0.0000 H       1  UNL1        0.0660
     89 H           7.0161    3.5298    0.0000 H       1  UNL1        0.0660
     90 H           6.3985    4.1522    0.0000 H       1  UNL1        0.0660
     91 H           5.7761    3.5346    0.0000 H       1  UNL1        0.0660
     92 H           6.9677   -4.5508    0.0000 H       1  UNL1        0.0660
     93 H           7.8138   -4.3206    0.0000 H       1  UNL1        0.0660
     94 H           7.5836   -3.4746    0.0000 H       1  UNL1        0.0660
     95 H           9.3120   -2.5418    0.0000 H       1  UNL1        0.0660
     96 H           9.5357   -1.6940    0.0000 H       1  UNL1        0.0660
     97 H           8.6879   -1.4703    0.0000 H       1  UNL1        0.0660
@<TRIPOS>BOND
     1     1    32    1
     2     1    39    1
     3     2    29    1
     4     2    45    1
     5     3    30    1
     6     3    46    1
     7     4    33    1
     8     4    47    1
     9     5    36    1
    10     5    48    1
    11     6    41    1
    12     6    49    1
    13     7    43    1
    14     7    50    1
    15     8    44    1
    16     8    51    1
    17     9    11    1
    18     9    13    1
    19     9    20    1
    20    10    21    1
    21    10    26    1
    22    10    40    1
    23    11    12    1
    24    11    14    1
    25    11    52    1
    26    12    16   ar
    27    12    19   ar
    28    13    15    1
    29    13    53    1
    30    13    54    1
    31    14    18    1
    32    14    55    1
    33    14    56    1
    34    15    16    1
    35    15    57    1
    36    15    58    1
    37    16    23   ar
    38    17    21   ar
    39    17    22   ar
    40    17    25   ar
    41    18    32   ar
    42    18    35   ar
    43    19    29   ar
    44    19    59    1
    45    20    60    1
    46    20    61    1
    47    20    62    1
    48    21    31   ar
    49    22    24    1
    50    22    34   ar
    51    23    30   ar
    52    23    65    1
    53    24    26    1
    54    24    63    1
    55    24    64    1
    56    25    27   ar
    57    25    33   ar
    58    26    66    1
    59    26    67    1
    60    27    28   ar
    61    27    38   ar
    62    28    31   ar
    63    28    37   ar
    64    29    30   ar
    65    31    68    1
    66    32    42   ar
    67    33    36   ar
    68    34    36   ar
    69    34    69    1
    70    35    43   ar
    71    35    70    1
    72    37    39   ar
    73    37    71    1
    74    38    41   ar
    75    38    72    1
    76    39    41   ar
    77    40    73    1
    78    40    74    1
    79    40    75    1
    80    42    44   ar
    81    42    76    1
    82    43    44   ar
    83    45    77    1
    84    45    78    1
    85    45    79    1
    86    46    80    1
    87    46    81    1
    88    46    82    1
    89    47    83    1
    90    47    84    1
    91    47    85    1
    92    48    86    1
    93    48    87    1
    94    48    88    1
    95    49    89    1
    96    49    90    1
    97    49    91    1
    98    50    92    1
    99    50    93    1
   100    50    94    1
   101    51    95    1
   102    51    96    1
   103    51    97    1
