@<TRIPOS>MOLECULE
IMPHY008618
 41 44 0 0 0
SMALL
GASTEIGER

@<TRIPOS>ATOM
      1 O           9.8882    1.9124    0.0000 O.3     1  UNL1       -0.4816
      2 O           5.5301   -1.6223    0.0000 O.2     1  UNL1       -0.4618
      3 O           5.5301    1.3777    0.0000 O.2     1  UNL1       -0.2863
      4 O           3.7817    1.4123    0.0000 O.3     1  UNL1       -0.5058
      5 O           2.0000   -1.6465    0.0000 O.3     1  UNL1       -0.5065
      6 C          10.7942    1.3985    0.0000 C.3     1  UNL1        0.1235
      7 C           8.9942    0.3777    0.0000 C.ar    1  UNL1        0.0171
      8 C           8.9942    1.3777    0.0000 C.ar    1  UNL1        0.1289
      9 C          10.7942    0.3569    0.0000 C.2     1  UNL1       -0.0409
     10 C          11.7942    1.4024    0.0000 C.3     1  UNL1       -0.0215
     11 C          11.2909    2.2664    0.0000 C.3     1  UNL1       -0.0215
     12 C           9.8882   -0.1570    0.0000 C.2     1  UNL1       -0.0513
     13 C           7.2622    0.3777    0.0000 C.ar    1  UNL1       -0.0105
     14 C           8.1282   -0.1223    0.0000 C.ar    1  UNL1       -0.0432
     15 C           8.1282    1.8777    0.0000 C.ar    1  UNL1       -0.0187
     16 C           6.3961   -0.1223    0.0000 C.ar    1  UNL1        0.0644
     17 C           7.2622    1.3777    0.0000 C.ar    1  UNL1       -0.0503
     18 C           4.6641   -0.1223    0.0000 C.ar    1  UNL1        0.1060
     19 C           5.5301    0.3777    0.0000 C.ar    1  UNL1        0.2037
     20 C           4.6641   -1.1223    0.0000 C.ar    1  UNL1        0.1454
     21 C           6.3961   -1.1223    0.0000 C.ar    1  UNL1        0.1038
     22 C           3.7702    0.4124    0.0000 C.ar    1  UNL1        0.1347
     23 C           3.7702   -1.6570    0.0000 C.ar    1  UNL1        0.0231
     24 C           2.8641   -0.1015    0.0000 C.ar    1  UNL1        0.0223
     25 C           2.8641   -1.1431    0.0000 C.ar    1  UNL1        0.1239
     26 H          11.3300    0.0448    0.0000 H       1  UNL1        0.0611
     27 H          11.7966    0.7824    0.0000 H       1  UNL1        0.0271
     28 H          12.4142    1.4048    0.0000 H       1  UNL1        0.0271
     29 H          11.8290    1.9585    0.0000 H       1  UNL1        0.0271
     30 H          11.5988    2.8046    0.0000 H       1  UNL1        0.0271
     31 H          10.7528    2.5744    0.0000 H       1  UNL1        0.0271
     32 H          11.7918    2.0224    0.0000 H       1  UNL1        0.0271
     33 H           9.8810   -0.7769    0.0000 H       1  UNL1        0.0623
     34 H           8.1282   -0.7423    0.0000 H       1  UNL1        0.0631
     35 H           8.1282    2.4977    0.0000 H       1  UNL1        0.0654
     36 H           6.7252    1.6877    0.0000 H       1  UNL1        0.0625
     37 H           6.9331   -1.4323    0.0000 H       1  UNL1        0.1037
     38 H           3.7773   -2.2769    0.0000 H       1  UNL1        0.0691
     39 H           2.3284    0.2106    0.0000 H       1  UNL1        0.0691
     40 H           3.2484    1.7285    0.0000 H       1  UNL1        0.2922
     41 H           2.0024   -2.2664    0.0000 H       1  UNL1        0.2921
@<TRIPOS>BOND
     1     1     6    1
     2     1     8    1
     3     2    20   ar
     4     2    21   ar
     5     3    19    2
     6     4    22    1
     7     4    40    1
     8     5    25    1
     9     5    41    1
    10     6     9    1
    11     6    10    1
    12     6    11    1
    13     7     8   ar
    14     7    12    1
    15     7    14   ar
    16     8    15   ar
    17     9    12    2
    18     9    26    1
    19    10    27    1
    20    10    28    1
    21    10    32    1
    22    11    29    1
    23    11    30    1
    24    11    31    1
    25    12    33    1
    26    13    14   ar
    27    13    16    1
    28    13    17   ar
    29    14    34    1
    30    15    17   ar
    31    15    35    1
    32    16    19   ar
    33    16    21   ar
    34    17    36    1
    35    18    19   ar
    36    18    20   ar
    37    18    22   ar
    38    20    23   ar
    39    21    37    1
    40    22    24   ar
    41    23    25   ar
    42    23    38    1
    43    24    25   ar
    44    24    39    1
