@<TRIPOS>MOLECULE
IMPHY000422
 117 123 0 0 0
SMALL
GASTEIGER

@<TRIPOS>ATOM
      1 O           5.0839   -3.5639    0.0000 O.3     1  UNL1       -0.3908
      2 O           6.0674    2.8964    0.0000 O.3     1  UNL1       -0.4574
      3 O           6.8671   -6.7082    0.0000 O.3     1  UNL1       -0.3450
      4 O           5.1350   -6.7082    0.0000 O.3     1  UNL1       -0.3405
      5 O           5.7036    4.5898    0.0000 O.2     1  UNL1       -0.2452
      6 O           6.8671   -8.7082    0.0000 O.3     1  UNL1       -0.3841
      7 O           6.9884    5.7515    0.0000 O.3     1  UNL1       -0.3438
      8 O           5.1350   -9.7082    0.0000 O.3     1  UNL1       -0.3864
      9 O           3.4030   -8.7082    0.0000 O.3     1  UNL1       -0.3865
     10 O           2.5369   -7.2082    0.0000 O.3     1  UNL1       -0.3924
     11 O           8.2730    6.9132    0.0000 O.3     1  UNL1       -0.3405
     12 O           5.6469    7.2350    0.0000 O.3     1  UNL1       -0.3841
     13 O           6.2609    9.1384    0.0000 O.3     1  UNL1       -0.3864
     14 O           8.2163    9.5584    0.0000 O.3     1  UNL1       -0.3865
     15 O           9.8648    9.0266    0.0000 O.3     1  UNL1       -0.3924
     16 C           6.8963   -0.5114    0.0000 C.3     1  UNL1       -0.0258
     17 C           7.7643   -1.0080    0.0000 C.3     1  UNL1       -0.0320
     18 C           7.7681   -2.0080    0.0000 C.3     1  UNL1       -0.0306
     19 C           6.9040   -2.5114    0.0000 C.3     1  UNL1       -0.0262
     20 C           7.1018    0.4612    0.0000 C.3     1  UNL1       -0.0294
     21 C           6.0322   -1.0147    0.0000 C.3     1  UNL1       -0.0468
     22 C           6.8920   -3.5529    0.0000 C.3     1  UNL1        0.0181
     23 C           8.4987   -0.3381    0.0000 C.3     1  UNL1       -0.0492
     24 C           6.0361   -2.0147    0.0000 C.3     1  UNL1       -0.0486
     25 C           8.0901    0.5681    0.0000 C.3     1  UNL1       -0.0491
     26 C           8.6801   -2.5114    0.0000 C.3     1  UNL1       -0.0311
     27 C           6.4311    1.2030    0.0000 C.3     1  UNL1       -0.0030
     28 C           6.0284   -0.0147    0.0000 C.3     1  UNL1       -0.0590
     29 C           7.7920   -4.0772    0.0000 C.2     1  UNL1       -0.0624
     30 C           5.9421   -4.0772    0.0000 C.3     1  UNL1        0.0669
     31 C           8.6921   -3.5529    0.0000 C.2     1  UNL1       -0.0838
     32 C           6.0279   -3.0496    0.0000 C.3     1  UNL1       -0.0532
     33 C           7.8046   -5.1621    0.0000 C.3     1  UNL1       -0.0046
     34 C           5.9295   -5.1621    0.0000 C.3     1  UNL1        0.0007
     35 C           6.7381    2.1547    0.0000 C.3     1  UNL1        0.1099
     36 C           6.8671   -5.7082    0.0000 C.3     1  UNL1        0.0678
     37 C           5.4534    0.9930    0.0000 C.3     1  UNL1       -0.0588
     38 C           7.7158    2.3647    0.0000 C.3     1  UNL1        0.0064
     39 C           8.0228    3.3164    0.0000 C.2     1  UNL1       -0.0570
     40 C           6.0010   -7.2082    0.0000 C.3     1  UNL1        0.1882
     41 C           6.3744    3.8481    0.0000 C.2     1  UNL1        0.3376
     42 C           7.3521    4.0581    0.0000 C.2     1  UNL1        0.0611
     43 C           9.0005    3.5264    0.0000 C.3     1  UNL1       -0.0428
     44 C           6.0010   -8.2082    0.0000 C.3     1  UNL1        0.1341
     45 C           7.6591    5.0098    0.0000 C.3     1  UNL1        0.0825
     46 C           5.1350   -8.7082    0.0000 C.3     1  UNL1        0.1141
     47 C           4.2690   -7.2082    0.0000 C.3     1  UNL1        0.1130
     48 C           4.2690   -8.2082    0.0000 C.3     1  UNL1        0.1119
     49 C           3.4030   -6.7082    0.0000 C.3     1  UNL1        0.0730
     50 C           7.2954    6.7032    0.0000 C.3     1  UNL1        0.1883
     51 C           6.6246    7.4450    0.0000 C.3     1  UNL1        0.1341
     52 C           6.9316    8.3967    0.0000 C.3     1  UNL1        0.1141
     53 C           8.5800    7.8649    0.0000 C.3     1  UNL1        0.1130
     54 C           7.9093    8.6067    0.0000 C.3     1  UNL1        0.1119
     55 C           9.5578    8.0749    0.0000 C.3     1  UNL1        0.0730
     56 H           8.5426   -1.3498    0.0000 H       1  UNL1        0.0309
     57 H           8.4993   -1.5745    0.0000 H       1  UNL1        0.0310
     58 H           7.6385   -2.9392    0.0000 H       1  UNL1        0.0313
     59 H           7.4044    1.2556    0.0000 H       1  UNL1        0.0310
     60 H           5.8179   -0.4329    0.0000 H       1  UNL1        0.0271
     61 H           5.4221   -1.1247    0.0000 H       1  UNL1        0.0271
     62 H           8.8661   -0.8376    0.0000 H       1  UNL1        0.0268
     63 H           9.0340   -0.0253    0.0000 H       1  UNL1        0.0268
     64 H           5.4251   -1.9094    0.0000 H       1  UNL1        0.0268
     65 H           5.8263   -2.5981    0.0000 H       1  UNL1        0.0268
     66 H           8.6790    0.7621    0.0000 H       1  UNL1        0.0268
     67 H           7.9590    1.1741    0.0000 H       1  UNL1        0.0268
     68 H           9.2921   -2.6104    0.0000 H       1  UNL1        0.0310
     69 H           8.8824   -1.9253    0.0000 H       1  UNL1        0.0310
     70 H           6.0152    1.6628    0.0000 H       1  UNL1        0.0337
     71 H           6.3363    0.5234    0.0000 H       1  UNL1        0.0235
     72 H           5.4902    0.2932    0.0000 H       1  UNL1        0.0235
     73 H           5.7204   -0.5528    0.0000 H       1  UNL1        0.0235
     74 H           5.4010   -4.3799    0.0000 H       1  UNL1        0.0603
     75 H           9.2314   -3.8588    0.0000 H       1  UNL1        0.0572
     76 H           6.3400   -2.5138    0.0000 H       1  UNL1        0.0239
     77 H           5.4922   -2.7375    0.0000 H       1  UNL1        0.0239
     78 H           5.7158   -3.5853    0.0000 H       1  UNL1        0.0239
     79 H           8.0204   -5.7434    0.0000 H       1  UNL1        0.0335
     80 H           8.4142   -5.0490    0.0000 H       1  UNL1        0.0335
     81 H           5.3199   -5.0490    0.0000 H       1  UNL1        0.0315
     82 H           5.7137   -5.7434    0.0000 H       1  UNL1        0.0315
     83 H           7.3082    1.5242    0.0000 H       1  UNL1        0.0740
     84 H           7.4046   -6.0172    0.0000 H       1  UNL1        0.0601
     85 H           5.3232    1.5992    0.0000 H       1  UNL1        0.0234
     86 H           4.8472    0.8628    0.0000 H       1  UNL1        0.0234
     87 H           5.5836    0.3868    0.0000 H       1  UNL1        0.0234
     88 H           7.7387    1.7451    0.0000 H       1  UNL1        0.0346
     89 H           8.3299    2.2797    0.0000 H       1  UNL1        0.0346
     90 H           4.5422   -3.8656    0.0000 H       1  UNL1        0.2098
     91 H           6.0010   -6.5882    0.0000 H       1  UNL1        0.0937
     92 H           9.1307    2.9202    0.0000 H       1  UNL1        0.0275
     93 H           9.6066    3.6566    0.0000 H       1  UNL1        0.0275
     94 H           8.8703    4.1325    0.0000 H       1  UNL1        0.0275
     95 H           6.0010   -8.8282    0.0000 H       1  UNL1        0.0671
     96 H           8.2071    4.7199    0.0000 H       1  UNL1        0.0613
     97 H           8.0397    5.4992    0.0000 H       1  UNL1        0.0613
     98 H           4.5981   -9.0182    0.0000 H       1  UNL1        0.0648
     99 H           4.2690   -6.5882    0.0000 H       1  UNL1        0.0647
    100 H           3.7320   -7.8982    0.0000 H       1  UNL1        0.0647
    101 H           6.8671   -9.3282    0.0000 H       1  UNL1        0.2101
    102 H           3.8015   -6.2333    0.0000 H       1  UNL1        0.0584
    103 H           3.0044   -6.2333    0.0000 H       1  UNL1        0.0584
    104 H           4.5981  -10.0182    0.0000 H       1  UNL1        0.2100
    105 H           3.4030   -9.3282    0.0000 H       1  UNL1        0.2100
    106 H           6.6892    6.5730    0.0000 H       1  UNL1        0.0938
    107 H           6.2088    7.9048    0.0000 H       1  UNL1        0.0671
    108 H           2.0000   -6.8982    0.0000 H       1  UNL1        0.2095
    109 H           7.1220    8.9867    0.0000 H       1  UNL1        0.0648
    110 H           8.9959    7.4051    0.0000 H       1  UNL1        0.0647
    111 H           8.5155    8.7369    0.0000 H       1  UNL1        0.0647
    112 H           5.2311    7.6948    0.0000 H       1  UNL1        0.2101
    113 H           9.5807    7.4554    0.0000 H       1  UNL1        0.0584
    114 H          10.1719    7.9900    0.0000 H       1  UNL1        0.0584
    115 H           6.4513    9.7285    0.0000 H       1  UNL1        0.2100
    116 H           7.8005   10.0182    0.0000 H       1  UNL1        0.2100
    117 H          10.4709    9.1568    0.0000 H       1  UNL1        0.2095
@<TRIPOS>BOND
     1    30     1    1
     2     1    90    1
     3     2    35    1
     4     2    41    1
     5    36     3    1
     6    40     3    1
     7     4    40    1
     8     4    47    1
     9     5    41    2
    10    44     6    1
    11     6   101    1
    12     7    45    1
    13    50     7    1
    14    46     8    1
    15     8   104    1
    16    48     9    1
    17     9   105    1
    18    10    49    1
    19    10   108    1
    20    11    50    1
    21    11    53    1
    22    51    12    1
    23    12   112    1
    24    52    13    1
    25    13   115    1
    26    54    14    1
    27    14   116    1
    28    15    55    1
    29    15   117    1
    30    16    17    1
    31    16    20    1
    32    16    21    1
    33    16    28    1
    34    17    18    1
    35    17    23    1
    36    17    56    1
    37    18    19    1
    38    18    26    1
    39    18    57    1
    40    19    22    1
    41    19    24    1
    42    19    58    1
    43    20    25    1
    44    20    27    1
    45    20    59    1
    46    21    24    1
    47    21    60    1
    48    21    61    1
    49    22    29    1
    50    22    30    1
    51    22    32    1
    52    23    25    1
    53    23    62    1
    54    23    63    1
    55    24    64    1
    56    24    65    1
    57    25    66    1
    58    25    67    1
    59    26    31    1
    60    26    68    1
    61    26    69    1
    62    27    35    1
    63    27    37    1
    64    27    70    1
    65    28    71    1
    66    28    72    1
    67    28    73    1
    68    29    31    2
    69    29    33    1
    70    30    34    1
    71    30    74    1
    72    31    75    1
    73    32    76    1
    74    32    77    1
    75    32    78    1
    76    33    36    1
    77    33    79    1
    78    33    80    1
    79    34    36    1
    80    34    81    1
    81    34    82    1
    82    35    38    1
    83    35    83    1
    84    36    84    1
    85    37    85    1
    86    37    86    1
    87    37    87    1
    88    38    39    1
    89    38    88    1
    90    38    89    1
    91    39    42    2
    92    39    43    1
    93    40    44    1
    94    40    91    1
    95    41    42    1
    96    42    45    1
    97    43    92    1
    98    43    93    1
    99    43    94    1
   100    44    46    1
   101    44    95    1
   102    45    96    1
   103    45    97    1
   104    46    48    1
   105    46    98    1
   106    47    48    1
   107    47    49    1
   108    47    99    1
   109    48   100    1
   110    49   102    1
   111    49   103    1
   112    50    51    1
   113    50   106    1
   114    51    52    1
   115    51   107    1
   116    52    54    1
   117    52   109    1
   118    53    54    1
   119    53    55    1
   120    53   110    1
   121    54   111    1
   122    55   113    1
   123    55   114    1
