@<TRIPOS>MOLECULE
IMPHY017205
 22 22 0 0 0
SMALL
GASTEIGER

@<TRIPOS>ATOM
      1 C           4.5981   -1.2500    0.0000 C.ar    1  UNL1       -0.0496
      2 C           2.8660   -1.2500    0.0000 C.ar    1  UNL1       -0.0496
      3 C           3.7320    0.2500    0.0000 C.ar    1  UNL1       -0.0251
      4 C           3.7320   -1.7500    0.0000 C.ar    1  UNL1       -0.0559
      5 C           4.5981   -0.2500    0.0000 C.ar    1  UNL1       -0.0517
      6 C           2.8660   -0.2500    0.0000 C.ar    1  UNL1       -0.0517
      7 C           5.4641   -1.7500    0.0000 C.3     1  UNL1       -0.0397
      8 C           2.0000   -1.7500    0.0000 C.3     1  UNL1       -0.0397
      9 C           3.7320    1.2500    0.0000 C.2     1  UNL1       -0.0617
     10 C           4.5981    1.7500    0.0000 C.2     1  UNL1       -0.0981
     11 H           3.7320   -2.3700    0.0000 H       1  UNL1        0.0623
     12 H           5.1350    0.0600    0.0000 H       1  UNL1        0.0626
     13 H           2.3291    0.0600    0.0000 H       1  UNL1        0.0626
     14 H           5.1541   -2.2869    0.0000 H       1  UNL1        0.0278
     15 H           6.0010   -2.0600    0.0000 H       1  UNL1        0.0278
     16 H           5.7741   -1.2131    0.0000 H       1  UNL1        0.0278
     17 H           1.6900   -1.2131    0.0000 H       1  UNL1        0.0278
     18 H           1.4631   -2.0600    0.0000 H       1  UNL1        0.0278
     19 H           2.3100   -2.2869    0.0000 H       1  UNL1        0.0278
     20 H           3.1951    1.5600    0.0000 H       1  UNL1        0.0618
     21 H           5.1350    1.4400    0.0000 H       1  UNL1        0.0535
     22 H           4.5981    2.3700    0.0000 H       1  UNL1        0.0535
@<TRIPOS>BOND
     1     1     4   ar
     2     1     5   ar
     3     1     7    1
     4     2     4   ar
     5     2     6   ar
     6     2     8    1
     7     3     5   ar
     8     3     6   ar
     9     3     9    1
    10     4    11    1
    11     5    12    1
    12     6    13    1
    13     7    14    1
    14     7    15    1
    15     7    16    1
    16     8    17    1
    17     8    18    1
    18     8    19    1
    19     9    10    2
    20     9    20    1
    21    10    21    1
    22    10    22    1
