@<TRIPOS>MOLECULE
IMPHY008692
 71 70 0 0 0
SMALL
GASTEIGER

@<TRIPOS>ATOM
      1 O           2.0000    4.5000    0.0000 O.2     1  UNL1       -0.2960
      2 C          15.8564   -1.5000    0.0000 C.3     1  UNL1       -0.0283
      3 C          16.7224   -2.0000    0.0000 C.3     1  UNL1       -0.0308
      4 C          15.8564   -0.5000    0.0000 C.2     1  UNL1       -0.0723
      5 C          16.7224   -3.0000    0.0000 C.2     1  UNL1       -0.0850
      6 C          17.5885   -3.5000    0.0000 C.2     1  UNL1       -0.0796
      7 C          16.7224    0.0000    0.0000 C.3     1  UNL1       -0.0435
      8 C          14.9904    0.0000    0.0000 C.2     1  UNL1       -0.0628
      9 C          17.5885   -4.5000    0.0000 C.3     1  UNL1       -0.0440
     10 C          18.4545   -3.0000    0.0000 C.3     1  UNL1       -0.0440
     11 C          14.1244   -0.5000    0.0000 C.2     1  UNL1       -0.0616
     12 C          13.2583    0.0000    0.0000 C.2     1  UNL1       -0.0588
     13 C          12.3923   -0.5000    0.0000 C.2     1  UNL1       -0.0504
     14 C          11.5263    0.0000    0.0000 C.2     1  UNL1       -0.0588
     15 C          12.3923   -1.5000    0.0000 C.3     1  UNL1       -0.0397
     16 C          10.6603   -0.5000    0.0000 C.2     1  UNL1       -0.0613
     17 C           8.9282   -0.5000    0.0000 C.2     1  UNL1       -0.0504
     18 C           9.7942    0.0000    0.0000 C.2     1  UNL1       -0.0588
     19 C           8.0622    0.0000    0.0000 C.2     1  UNL1       -0.0588
     20 C           8.9282   -1.5000    0.0000 C.3     1  UNL1       -0.0397
     21 C           4.5981    0.0000    0.0000 C.2     1  UNL1       -0.0504
     22 C           7.1962   -0.5000    0.0000 C.2     1  UNL1       -0.0615
     23 C           5.4641   -0.5000    0.0000 C.2     1  UNL1       -0.0588
     24 C           6.3301    0.0000    0.0000 C.2     1  UNL1       -0.0615
     25 C           4.5981    1.0000    0.0000 C.2     1  UNL1       -0.0588
     26 C           3.7320   -0.5000    0.0000 C.3     1  UNL1       -0.0397
     27 C           3.7320    1.5000    0.0000 C.2     1  UNL1       -0.0612
     28 C           3.7320    2.5000    0.0000 C.2     1  UNL1       -0.0558
     29 C           2.8660    3.0000    0.0000 C.2     1  UNL1       -0.0113
     30 C           2.0000    2.5000    0.0000 C.3     1  UNL1       -0.0367
     31 C           2.8660    4.0000    0.0000 C.2     1  UNL1        0.1460
     32 H          15.2458   -1.3923    0.0000 H       1  UNL1        0.0313
     33 H          15.6444   -2.0826    0.0000 H       1  UNL1        0.0313
     34 H          17.3330   -2.1077    0.0000 H       1  UNL1        0.0310
     35 H          16.9345   -1.4174    0.0000 H       1  UNL1        0.0310
     36 H          16.1855   -3.3100    0.0000 H       1  UNL1        0.0572
     37 H          17.0324   -0.5369    0.0000 H       1  UNL1        0.0274
     38 H          17.2594    0.3100    0.0000 H       1  UNL1        0.0274
     39 H          16.4124    0.5369    0.0000 H       1  UNL1        0.0274
     40 H          14.9904    0.6200    0.0000 H       1  UNL1        0.0617
     41 H          16.9685   -4.5000    0.0000 H       1  UNL1        0.0274
     42 H          18.7645   -3.5369    0.0000 H       1  UNL1        0.0274
     43 H          18.9914   -2.6900    0.0000 H       1  UNL1        0.0274
     44 H          17.5885   -5.1200    0.0000 H       1  UNL1        0.0274
     45 H          18.1445   -2.4631    0.0000 H       1  UNL1        0.0274
     46 H          18.2085   -4.5000    0.0000 H       1  UNL1        0.0274
     47 H          14.1244   -1.1200    0.0000 H       1  UNL1        0.0618
     48 H          13.2583    0.6200    0.0000 H       1  UNL1        0.0620
     49 H          11.5263    0.6200    0.0000 H       1  UNL1        0.0620
     50 H          11.7723   -1.5000    0.0000 H       1  UNL1        0.0278
     51 H          12.3923   -2.1200    0.0000 H       1  UNL1        0.0278
     52 H          13.0123   -1.5000    0.0000 H       1  UNL1        0.0278
     53 H          10.6603   -1.1200    0.0000 H       1  UNL1        0.0618
     54 H           9.7942    0.6200    0.0000 H       1  UNL1        0.0620
     55 H           8.0622    0.6200    0.0000 H       1  UNL1        0.0620
     56 H           8.3082   -1.5000    0.0000 H       1  UNL1        0.0278
     57 H           8.9282   -2.1200    0.0000 H       1  UNL1        0.0278
     58 H           9.5482   -1.5000    0.0000 H       1  UNL1        0.0278
     59 H           7.1962   -1.1200    0.0000 H       1  UNL1        0.0618
     60 H           5.4641   -1.1200    0.0000 H       1  UNL1        0.0620
     61 H           6.3301    0.6200    0.0000 H       1  UNL1        0.0618
     62 H           5.1350    1.3100    0.0000 H       1  UNL1        0.0620
     63 H           3.4220    0.0369    0.0000 H       1  UNL1        0.0278
     64 H           3.1951   -0.8100    0.0000 H       1  UNL1        0.0278
     65 H           4.0420   -1.0369    0.0000 H       1  UNL1        0.0278
     66 H           3.1951    1.1900    0.0000 H       1  UNL1        0.0618
     67 H           4.2690    2.8100    0.0000 H       1  UNL1        0.0621
     68 H           1.6900    3.0369    0.0000 H       1  UNL1        0.0278
     69 H           1.4631    2.1900    0.0000 H       1  UNL1        0.0278
     70 H           2.3100    1.9631    0.0000 H       1  UNL1        0.0278
     71 H           3.4030    4.3100    0.0000 H       1  UNL1        0.1078
@<TRIPOS>BOND
     1     1    31    2
     2     2     3    1
     3     2     4    1
     4     2    32    1
     5     2    33    1
     6     3     5    1
     7     3    34    1
     8     3    35    1
     9     4     7    1
    10     4     8    2
    11     5     6    2
    12     5    36    1
    13     6     9    1
    14     6    10    1
    15     7    37    1
    16     7    38    1
    17     7    39    1
    18     8    11    1
    19     8    40    1
    20     9    41    1
    21     9    44    1
    22     9    46    1
    23    10    42    1
    24    10    43    1
    25    10    45    1
    26    11    12    2
    27    11    47    1
    28    12    13    1
    29    12    48    1
    30    13    14    2
    31    13    15    1
    32    14    16    1
    33    14    49    1
    34    15    50    1
    35    15    51    1
    36    15    52    1
    37    16    18    2
    38    16    53    1
    39    17    18    1
    40    17    19    2
    41    17    20    1
    42    18    54    1
    43    19    22    1
    44    19    55    1
    45    20    56    1
    46    20    57    1
    47    20    58    1
    48    21    23    2
    49    21    25    1
    50    21    26    1
    51    22    24    2
    52    22    59    1
    53    23    24    1
    54    23    60    1
    55    24    61    1
    56    25    27    2
    57    25    62    1
    58    26    63    1
    59    26    64    1
    60    26    65    1
    61    27    28    1
    62    27    66    1
    63    28    29    2
    64    28    67    1
    65    29    30    1
    66    29    31    1
    67    30    68    1
    68    30    69    1
    69    30    70    1
    70    31    71    1
