@<TRIPOS>MOLECULE
IMPHY014255
 51 54 0 0 0
SMALL
GASTEIGER

@<TRIPOS>ATOM
      1 O           5.1350   -0.3521    0.0000 O.3     1  UNL1       -0.3313
      2 O           6.8671   -0.3521    0.0000 O.3     1  UNL1       -0.4601
      3 O           5.1350   -3.3520    0.0000 O.3     1  UNL1       -0.3864
      4 O           3.4030   -2.3521    0.0000 O.3     1  UNL1       -0.3865
      5 O           6.8671   -2.3521    0.0000 O.3     1  UNL1       -0.3829
      6 O           2.5369   -0.8521    0.0000 O.3     1  UNL1       -0.3924
      7 O           8.6158   -0.3377    0.0000 O.2     1  UNL1       -0.2864
      8 O           8.6620    3.6620    0.0000 O.2     1  UNL1       -0.2866
      9 O          10.3636   -0.3925    0.0000 O.3     1  UNL1       -0.5059
     10 O          12.1806    2.6454    0.0000 O.3     1  UNL1       -0.5066
     11 C           5.1350   -2.3521    0.0000 C.3     1  UNL1        0.1152
     12 C           4.2690   -1.8520    0.0000 C.3     1  UNL1        0.1120
     13 C           6.0010   -1.8520    0.0000 C.3     1  UNL1        0.1454
     14 C           4.2690   -0.8521    0.0000 C.3     1  UNL1        0.1140
     15 C           6.0010   -0.8521    0.0000 C.3     1  UNL1        0.2308
     16 C           3.4030   -0.3521    0.0000 C.3     1  UNL1        0.0731
     17 C           6.8671    0.6479    0.0000 C.ar    1  UNL1        0.1357
     18 C           7.7671    1.1722    0.0000 C.ar    1  UNL1        0.0749
     19 C           7.7787    2.1722    0.0000 C.ar    1  UNL1        0.0369
     20 C           5.9670    1.1722    0.0000 C.ar    1  UNL1       -0.0162
     21 C           8.6273    0.6623    0.0000 C.2     1  UNL1        0.2015
     22 C           5.9790    2.2138    0.0000 C.ar    1  UNL1       -0.0463
     23 C           9.4991    1.1522    0.0000 C.ar    1  UNL1        0.0748
     24 C           6.8910    2.7171    0.0000 C.ar    1  UNL1       -0.0471
     25 C           9.5106    2.1521    0.0000 C.ar    1  UNL1        0.0400
     26 C           8.6504    2.6621    0.0000 C.2     1  UNL1        0.1949
     27 C          10.3868    0.6072    0.0000 C.ar    1  UNL1        0.1318
     28 C           5.1208    2.7271    0.0000 C.3     1  UNL1       -0.0396
     29 C          10.4107    2.6764    0.0000 C.ar    1  UNL1       -0.0084
     30 C          11.2987    1.1106    0.0000 C.ar    1  UNL1        0.0221
     31 C          11.3108    2.1521    0.0000 C.ar    1  UNL1        0.1210
     32 H           4.5981   -2.6620    0.0000 H       1  UNL1        0.0648
     33 H           4.2690   -2.4720    0.0000 H       1  UNL1        0.0647
     34 H           6.0010   -2.4720    0.0000 H       1  UNL1        0.0683
     35 H           4.2690   -0.2321    0.0000 H       1  UNL1        0.0647
     36 H           6.0010   -0.2321    0.0000 H       1  UNL1        0.1084
     37 H           3.8015    0.1229    0.0000 H       1  UNL1        0.0584
     38 H           3.0044    0.1229    0.0000 H       1  UNL1        0.0584
     39 H           4.5981   -3.6620    0.0000 H       1  UNL1        0.2100
     40 H           3.4030   -2.9720    0.0000 H       1  UNL1        0.2100
     41 H           6.8671   -2.9720    0.0000 H       1  UNL1        0.2102
     42 H           5.4277    0.8664    0.0000 H       1  UNL1        0.0657
     43 H           2.0000   -0.5421    0.0000 H       1  UNL1        0.2095
     44 H           6.9053    3.3370    0.0000 H       1  UNL1        0.0627
     45 H           5.4391    3.2592    0.0000 H       1  UNL1        0.0278
     46 H           4.5887    3.0453    0.0000 H       1  UNL1        0.0278
     47 H           4.8026    2.1950    0.0000 H       1  UNL1        0.0278
     48 H          10.4107    3.2964    0.0000 H       1  UNL1        0.0661
     49 H          11.8308    0.7923    0.0000 H       1  UNL1        0.0691
     50 H          10.8933   -0.7148    0.0000 H       1  UNL1        0.2922
     51 H          12.7151    2.3313    0.0000 H       1  UNL1        0.2921
@<TRIPOS>BOND
     1     1    14    1
     2     1    15    1
     3     2    15    1
     4     2    17    1
     5     3    11    1
     6     3    39    1
     7     4    12    1
     8     4    40    1
     9     5    13    1
    10     5    41    1
    11     6    16    1
    12     6    43    1
    13     7    21    2
    14     8    26    2
    15     9    27    1
    16     9    50    1
    17    10    31    1
    18    10    51    1
    19    11    12    1
    20    11    13    1
    21    11    32    1
    22    12    14    1
    23    12    33    1
    24    13    15    1
    25    13    34    1
    26    14    16    1
    27    14    35    1
    28    15    36    1
    29    16    37    1
    30    16    38    1
    31    17    18   ar
    32    17    20   ar
    33    18    19   ar
    34    18    21    1
    35    19    24   ar
    36    19    26    1
    37    20    22   ar
    38    20    42    1
    39    21    23    1
    40    22    24   ar
    41    22    28    1
    42    23    25   ar
    43    23    27   ar
    44    24    44    1
    45    25    26    1
    46    25    29   ar
    47    27    30   ar
    48    28    45    1
    49    28    46    1
    50    28    47    1
    51    29    31   ar
    52    29    48    1
    53    30    31   ar
    54    30    49    1
