@<TRIPOS>MOLECULE
IMPHY013097
 36 37 0 0 0
SMALL
GASTEIGER

@<TRIPOS>ATOM
      1 O           6.3097   -0.2402    0.0000 O.3     1  UNL1       -0.4611
      2 O           5.7173   -1.8678    0.0000 O.2     1  UNL1       -0.2505
      3 N           3.7977    2.3569    0.0000 N.3     1  UNL1       -0.3103
      4 C           3.3199    0.4083    0.0000 C.3     1  UNL1        0.0113
      5 C           3.0611    1.3743    0.0000 C.3     1  UNL1        0.0113
      6 C           1.9210   -0.1005    0.0000 C.3     1  UNL1       -0.0360
      7 C           1.6622    0.8654    0.0000 C.3     1  UNL1       -0.0360
      8 C           4.5410   -0.4573    0.0000 C.3     1  UNL1       -0.0002
      9 C           5.0944    1.0631    0.0000 C.3     1  UNL1       -0.0002
     10 C           5.3700    0.1019    0.0000 C.3     1  UNL1        0.1059
     11 C           6.4833   -1.2250    0.0000 C.2     1  UNL1        0.3102
     12 C           7.4230   -1.5670    0.0000 C.3     1  UNL1        0.0534
     13 C           7.5967   -2.5518    0.0000 C.3     1  UNL1       -0.0432
     14 C           8.1891   -0.9242    0.0000 C.3     1  UNL1       -0.0523
     15 C           8.5364   -2.8938    0.0000 C.3     1  UNL1       -0.0645
     16 H           3.5399   -0.4127    0.0000 H       1  UNL1        0.0462
     17 H           2.8411    2.1953    0.0000 H       1  UNL1        0.0462
     18 H           2.1159   -0.6890    0.0000 H       1  UNL1        0.0281
     19 H           1.3270   -0.2783    0.0000 H       1  UNL1        0.0281
     20 H           1.0682    0.6877    0.0000 H       1  UNL1        0.0281
     21 H           1.4672    1.4540    0.0000 H       1  UNL1        0.0281
     22 H           4.9468   -0.9260    0.0000 H       1  UNL1        0.0316
     23 H           4.1243   -0.9165    0.0000 H       1  UNL1        0.0316
     24 H           5.0994    1.6831    0.0000 H       1  UNL1        0.0316
     25 H           5.7087    1.1469    0.0000 H       1  UNL1        0.0316
     26 H           5.4456   -0.5135    0.0000 H       1  UNL1        0.0735
     27 H           4.1077    2.8938    0.0000 H       1  UNL1        0.1225
     28 H           7.3154   -0.9564    0.0000 H       1  UNL1        0.0410
     29 H           7.4890   -3.1624    0.0000 H       1  UNL1        0.0270
     30 H           6.9767   -2.5518    0.0000 H       1  UNL1        0.0270
     31 H           7.7906   -0.4492    0.0000 H       1  UNL1        0.0238
     32 H           8.6640   -0.5257    0.0000 H       1  UNL1        0.0238
     33 H           8.5876   -1.3991    0.0000 H       1  UNL1        0.0238
     34 H           8.7484   -2.3112    0.0000 H       1  UNL1        0.0230
     35 H           9.1190   -3.1059    0.0000 H       1  UNL1        0.0230
     36 H           8.3243   -3.4764    0.0000 H       1  UNL1        0.0230
@<TRIPOS>BOND
     1     1    10    1
     2     1    11    1
     3     2    11    2
     4     3     4    1
     5     3     5    1
     6     3    27    1
     7     4     6    1
     8     4     8    1
     9     4    16    1
    10     5     7    1
    11     5     9    1
    12     5    17    1
    13     6     7    1
    14     6    18    1
    15     6    19    1
    16     7    20    1
    17     7    21    1
    18     8    10    1
    19     8    22    1
    20     8    23    1
    21     9    10    1
    22     9    24    1
    23     9    25    1
    24    10    26    1
    25    11    12    1
    26    12    13    1
    27    12    14    1
    28    12    28    1
    29    13    15    1
    30    13    29    1
    31    13    30    1
    32    14    31    1
    33    14    32    1
    34    14    33    1
    35    15    34    1
    36    15    35    1
    37    15    36    1
