@<TRIPOS>MOLECULE
IMPHY009713
 33 33 0 0 0
SMALL
GASTEIGER

@<TRIPOS>ATOM
      1 O           7.2144   -1.5094    0.0000 O.2     1  UNL1       -0.2971
      2 O           2.9511   -2.1785    0.0000 O.3     1  UNL1       -0.4677
      3 O           3.4863   -0.5312    0.0000 O.2     1  UNL1       -0.2505
      4 C           5.4543   -1.2306    0.0000 C.3     1  UNL1        0.0338
      5 C           4.6453   -1.8184    0.0000 C.3     1  UNL1        0.0665
      6 C           4.9543   -2.7694    0.0000 C.3     1  UNL1       -0.0328
      7 C           5.9543   -2.7694    0.0000 C.3     1  UNL1        0.0069
      8 C           6.2633   -1.8184    0.0000 C.2     1  UNL1        0.1375
      9 C           5.4543   -0.2306    0.0000 C.3     1  UNL1       -0.0245
     10 C           3.6942   -1.5094    0.0000 C.2     1  UNL1        0.3106
     11 C           6.3203    0.2694    0.0000 C.2     1  UNL1       -0.0873
     12 C           6.3203    1.2694    0.0000 C.2     1  UNL1       -0.0882
     13 C           5.4543    1.7694    0.0000 C.3     1  UNL1       -0.0376
     14 C           2.0000   -1.8695    0.0000 C.3     1  UNL1        0.0817
     15 C           5.4543    2.7694    0.0000 C.3     1  UNL1       -0.0618
     16 H           4.9018   -0.9491    0.0000 H       1  UNL1        0.0388
     17 H           4.5483   -1.2060    0.0000 H       1  UNL1        0.0420
     18 H           4.3478   -2.8983    0.0000 H       1  UNL1        0.0277
     19 H           5.0191   -3.3860    0.0000 H       1  UNL1        0.0277
     20 H           5.8895   -3.3860    0.0000 H       1  UNL1        0.0342
     21 H           6.5607   -2.8983    0.0000 H       1  UNL1        0.0342
     22 H           5.2422    0.3520    0.0000 H       1  UNL1        0.0314
     23 H           4.8437   -0.3382    0.0000 H       1  UNL1        0.0314
     24 H           6.8572   -0.0406    0.0000 H       1  UNL1        0.0569
     25 H           6.8572    1.5794    0.0000 H       1  UNL1        0.0569
     26 H           4.8437    1.8771    0.0000 H       1  UNL1        0.0305
     27 H           5.2422    1.1868    0.0000 H       1  UNL1        0.0305
     28 H           2.1916   -1.2798    0.0000 H       1  UNL1        0.0661
     29 H           1.4103   -1.6779    0.0000 H       1  UNL1        0.0661
     30 H           1.8084   -2.4591    0.0000 H       1  UNL1        0.0661
     31 H           6.0743    2.7694    0.0000 H       1  UNL1        0.0233
     32 H           5.4543    3.3894    0.0000 H       1  UNL1        0.0233
     33 H           4.8343    2.7694    0.0000 H       1  UNL1        0.0233
@<TRIPOS>BOND
     1     1     8    2
     2     2    10    1
     3     2    14    1
     4     3    10    2
     5     4     5    1
     6     4     8    1
     7     4     9    1
     8     4    16    1
     9     5     6    1
    10     5    10    1
    11     5    17    1
    12     6     7    1
    13     6    18    1
    14     6    19    1
    15     7     8    1
    16     7    20    1
    17     7    21    1
    18     9    11    1
    19     9    22    1
    20     9    23    1
    21    11    12    2
    22    11    24    1
    23    12    13    1
    24    12    25    1
    25    13    15    1
    26    13    26    1
    27    13    27    1
    28    14    28    1
    29    14    29    1
    30    14    30    1
    31    15    31    1
    32    15    32    1
    33    15    33    1
