@<TRIPOS>MOLECULE
IMPHY009567
 80 82 0 0 0
SMALL
GASTEIGER

@<TRIPOS>ATOM
      1 O           2.8757    3.5000    0.0000 O.3     1  UNL1       -0.4554
      2 O           8.0719   -3.5000    0.0000 O.3     1  UNL1       -0.4554
      3 O           7.2058   -5.0000    0.0000 O.2     1  UNL1       -0.2508
      4 O           3.7417    5.0000    0.0000 O.2     1  UNL1       -0.2508
      5 N           7.2058   -1.0000    0.0000 N.2     1  UNL1       -0.2858
      6 N           3.7417    1.0000    0.0000 N.2     1  UNL1       -0.2858
      7 C           2.8757    0.5000    0.0000 C.3     1  UNL1        0.0510
      8 C           8.0719   -0.5000    0.0000 C.3     1  UNL1        0.0510
      9 C           2.0000    0.9966    0.0000 C.3     1  UNL1       -0.0269
     10 C           8.9379   -1.0000    0.0000 C.3     1  UNL1       -0.0269
     11 C           2.8757   -0.5000    0.0000 C.3     1  UNL1       -0.0306
     12 C           8.0719    0.5000    0.0000 C.3     1  UNL1       -0.0306
     13 C           2.0000    2.0034    0.0000 C.3     1  UNL1       -0.0084
     14 C           8.9379   -2.0000    0.0000 C.3     1  UNL1       -0.0084
     15 C           2.8757    2.5000    0.0000 C.3     1  UNL1        0.1403
     16 C           8.0719   -2.5000    0.0000 C.3     1  UNL1        0.1403
     17 C           3.7417   -1.0000    0.0000 C.3     1  UNL1       -0.0511
     18 C           7.2058    1.0000    0.0000 C.3     1  UNL1       -0.0511
     19 C           7.2058    2.0000    0.0000 C.3     1  UNL1       -0.0530
     20 C           3.7417   -2.0000    0.0000 C.3     1  UNL1       -0.0530
     21 C           7.2058   -2.0000    0.0000 C.2     1  UNL1        0.0509
     22 C           3.7417    2.0000    0.0000 C.2     1  UNL1        0.0509
     23 C           6.3398    2.5000    0.0000 C.3     1  UNL1       -0.0530
     24 C           4.6078   -2.5000    0.0000 C.3     1  UNL1       -0.0530
     25 C           6.3398    3.5000    0.0000 C.3     1  UNL1       -0.0526
     26 C           4.6078   -3.5000    0.0000 C.3     1  UNL1       -0.0526
     27 C           5.4738   -4.0000    0.0000 C.3     1  UNL1       -0.0430
     28 C           5.4738    4.0000    0.0000 C.3     1  UNL1       -0.0430
     29 C           4.6078    2.5000    0.0000 C.3     1  UNL1       -0.0231
     30 C           6.3398   -2.5000    0.0000 C.3     1  UNL1       -0.0231
     31 C           4.6078    3.5000    0.0000 C.3     1  UNL1        0.0450
     32 C           6.3398   -3.5000    0.0000 C.3     1  UNL1        0.0450
     33 C           7.2058   -4.0000    0.0000 C.2     1  UNL1        0.3077
     34 C           3.7417    4.0000    0.0000 C.2     1  UNL1        0.3077
     35 H           8.6088   -0.1900    0.0000 H       1  UNL1        0.0544
     36 H           2.3400    0.1879    0.0000 H       1  UNL1        0.0544
     37 H           9.5485   -1.1077    0.0000 H       1  UNL1        0.0287
     38 H           1.3891    1.1027    0.0000 H       1  UNL1        0.0287
     39 H           1.7909    0.4129    0.0000 H       1  UNL1        0.0287
     40 H           9.1499   -0.4174    0.0000 H       1  UNL1        0.0287
     41 H           8.6824    0.3923    0.0000 H       1  UNL1        0.0286
     42 H           8.2839    1.0826    0.0000 H       1  UNL1        0.0286
     43 H           2.2651   -0.3923    0.0000 H       1  UNL1        0.0286
     44 H           2.6637   -1.0826    0.0000 H       1  UNL1        0.0286
     45 H           1.7909    2.5871    0.0000 H       1  UNL1        0.0305
     46 H           9.1499   -2.5826    0.0000 H       1  UNL1        0.0305
     47 H           9.5485   -1.8923    0.0000 H       1  UNL1        0.0305
     48 H           1.3891    1.8973    0.0000 H       1  UNL1        0.0305
     49 H           8.6088   -2.8100    0.0000 H       1  UNL1        0.0797
     50 H           3.4126    2.8100    0.0000 H       1  UNL1        0.0797
     51 H           4.3523   -1.1077    0.0000 H       1  UNL1        0.0266
     52 H           3.9538   -0.4174    0.0000 H       1  UNL1        0.0266
     53 H           6.5953    1.1077    0.0000 H       1  UNL1        0.0266
     54 H           6.9938    0.4174    0.0000 H       1  UNL1        0.0266
     55 H           3.1312   -1.8923    0.0000 H       1  UNL1        0.0265
     56 H           3.5297   -2.5826    0.0000 H       1  UNL1        0.0265
     57 H           7.8164    1.8923    0.0000 H       1  UNL1        0.0265
     58 H           7.4179    2.5826    0.0000 H       1  UNL1        0.0265
     59 H           5.2184   -2.6077    0.0000 H       1  UNL1        0.0265
     60 H           5.7292    2.6077    0.0000 H       1  UNL1        0.0265
     61 H           6.1278    1.9174    0.0000 H       1  UNL1        0.0265
     62 H           4.8198   -1.9174    0.0000 H       1  UNL1        0.0265
     63 H           6.9504    3.3923    0.0000 H       1  UNL1        0.0265
     64 H           6.5519    4.0826    0.0000 H       1  UNL1        0.0265
     65 H           3.9972   -3.3923    0.0000 H       1  UNL1        0.0265
     66 H           4.3957   -4.0826    0.0000 H       1  UNL1        0.0265
     67 H           5.8723    4.4750    0.0000 H       1  UNL1        0.0270
     68 H           5.0753    4.4750    0.0000 H       1  UNL1        0.0270
     69 H           5.0753   -4.4750    0.0000 H       1  UNL1        0.0270
     70 H           5.8723   -4.4750    0.0000 H       1  UNL1        0.0270
     71 H           4.9178    1.9631    0.0000 H       1  UNL1        0.0290
     72 H           5.1447    2.8100    0.0000 H       1  UNL1        0.0290
     73 H           4.2978    3.0369    0.0000 H       1  UNL1        0.0290
     74 H           6.0298   -1.9631    0.0000 H       1  UNL1        0.0290
     75 H           5.8029   -2.8100    0.0000 H       1  UNL1        0.0290
     76 H           6.6498   -3.0369    0.0000 H       1  UNL1        0.0290
     77 H           4.2092    3.0250    0.0000 H       1  UNL1        0.0377
     78 H           5.0063    3.0250    0.0000 H       1  UNL1        0.0377
     79 H           6.7383   -3.0250    0.0000 H       1  UNL1        0.0377
     80 H           5.9413   -3.0250    0.0000 H       1  UNL1        0.0377
@<TRIPOS>BOND
     1     1    15    1
     2     1    34    1
     3     2    16    1
     4     2    33    1
     5     3    33    2
     6     4    34    2
     7     5     8    1
     8     5    21    2
     9     6     7    1
    10     6    22    2
    11     7     9    1
    12     7    11    1
    13     7    36    1
    14     8    10    1
    15     8    12    1
    16     8    35    1
    17     9    13    1
    18     9    38    1
    19     9    39    1
    20    10    14    1
    21    10    37    1
    22    10    40    1
    23    11    17    1
    24    11    43    1
    25    11    44    1
    26    12    18    1
    27    12    41    1
    28    12    42    1
    29    13    15    1
    30    13    45    1
    31    13    48    1
    32    14    16    1
    33    14    46    1
    34    14    47    1
    35    15    22    1
    36    15    50    1
    37    16    21    1
    38    16    49    1
    39    17    20    1
    40    17    51    1
    41    17    52    1
    42    18    19    1
    43    18    53    1
    44    18    54    1
    45    19    23    1
    46    19    57    1
    47    19    58    1
    48    20    24    1
    49    20    55    1
    50    20    56    1
    51    21    30    1
    52    22    29    1
    53    23    25    1
    54    23    60    1
    55    23    61    1
    56    24    26    1
    57    24    59    1
    58    24    62    1
    59    25    28    1
    60    25    63    1
    61    25    64    1
    62    26    27    1
    63    26    65    1
    64    26    66    1
    65    27    32    1
    66    27    69    1
    67    27    70    1
    68    28    31    1
    69    28    67    1
    70    28    68    1
    71    29    71    1
    72    29    72    1
    73    29    73    1
    74    30    74    1
    75    30    75    1
    76    30    76    1
    77    31    34    1
    78    31    77    1
    79    31    78    1
    80    32    33    1
    81    32    79    1
    82    32    80    1
