@<TRIPOS>MOLECULE
IMPHY014258
 50 54 0 0 0
SMALL
GASTEIGER

@<TRIPOS>ATOM
      1 O           2.5367   -2.5686    0.0000 O.3     1  UNL1       -0.3662
      2 O           5.5856   -2.5724    0.0000 O.3     1  UNL1       -0.3787
      3 N           3.4030   -0.0682    0.0000 N.3     1  UNL1       -0.2988
      4 N           7.2628    0.2166    0.0000 N.ar    1  UNL1       -0.3576
      5 C           4.2690   -1.5682    0.0000 C.3     1  UNL1        0.0383
      6 C           3.4030   -2.0682    0.0000 C.3     1  UNL1        0.0956
      7 C           2.5369   -1.5682    0.0000 C.3     1  UNL1        0.0985
      8 C           4.2690   -0.5682    0.0000 C.3     1  UNL1        0.0095
      9 C           2.5369   -0.5682    0.0000 C.3     1  UNL1        0.0277
     10 C           5.2833   -1.6192    0.0000 C.3     1  UNL1        0.0729
     11 C           4.7691   -2.4341    0.0000 C.3     1  UNL1       -0.0442
     12 C           6.0827   -0.9929    0.0000 C.3     1  UNL1        0.0148
     13 C           3.8659    0.8358    0.0000 C.3     1  UNL1        0.0031
     14 C           4.2690   -3.3002    0.0000 C.3     1  UNL1       -0.0646
     15 C           4.8080    1.2150    0.0000 C.3     1  UNL1       -0.0126
     16 C           6.2758    0.0041    0.0000 C.ar    1  UNL1        0.0227
     17 C           5.7680    0.8837    0.0000 C.ar    1  UNL1       -0.0178
     18 C           6.4455    1.6322    0.0000 C.ar    1  UNL1        0.0031
     19 C           6.5623   -2.7872    0.0000 C.3     1  UNL1        0.0368
     20 C           7.3674    1.2207    0.0000 C.ar    1  UNL1        0.0469
     21 C           6.3204    2.6763    0.0000 C.ar    1  UNL1       -0.0523
     22 C           8.2282    1.8249    0.0000 C.ar    1  UNL1       -0.0378
     23 C           7.1669    3.3002    0.0000 C.ar    1  UNL1       -0.0611
     24 C           8.1272    2.8716    0.0000 C.ar    1  UNL1       -0.0598
     25 H           3.7130   -2.6051    0.0000 H       1  UNL1        0.0629
     26 H           2.0000   -1.2582    0.0000 H       1  UNL1        0.0635
     27 H           4.8796   -0.6758    0.0000 H       1  UNL1        0.0434
     28 H           4.4810    0.0145    0.0000 H       1  UNL1        0.0434
     29 H           2.3249    0.0145    0.0000 H       1  UNL1        0.0453
     30 H           1.9264   -0.6758    0.0000 H       1  UNL1        0.0453
     31 H           5.8757   -1.8022    0.0000 H       1  UNL1        0.0606
     32 H           5.2440   -2.8326    0.0000 H       1  UNL1        0.0270
     33 H           5.2440   -2.0356    0.0000 H       1  UNL1        0.0270
     34 H           6.3123   -1.5688    0.0000 H       1  UNL1        0.0353
     35 H           6.7000   -0.9347    0.0000 H       1  UNL1        0.0353
     36 H           3.8056    1.4529    0.0000 H       1  UNL1        0.0430
     37 H           3.2568    0.9517    0.0000 H       1  UNL1        0.0430
     38 H           3.7321   -2.9902    0.0000 H       1  UNL1        0.0230
     39 H           3.9590   -3.8371    0.0000 H       1  UNL1        0.0230
     40 H           4.8060   -3.6102    0.0000 H       1  UNL1        0.0230
     41 H           5.1670    1.7204    0.0000 H       1  UNL1        0.0326
     42 H           4.4240    1.7017    0.0000 H       1  UNL1        0.0326
     43 H           7.7242   -0.1975    0.0000 H       1  UNL1        0.1656
     44 H           6.4291   -3.3928    0.0000 H       1  UNL1        0.0524
     45 H           7.1678   -2.9204    0.0000 H       1  UNL1        0.0524
     46 H           6.6954   -2.1817    0.0000 H       1  UNL1        0.0524
     47 H           5.7513    2.9224    0.0000 H       1  UNL1        0.0624
     48 H           8.7914    1.5657    0.0000 H       1  UNL1        0.0638
     49 H           7.1002    3.9166    0.0000 H       1  UNL1        0.0618
     50 H           8.6305    3.2337    0.0000 H       1  UNL1        0.0618
@<TRIPOS>BOND
     1     6     1    1
     2     7     1    1
     3     2    10    1
     4     2    19    1
     5     3     8    1
     6     3     9    1
     7     3    13    1
     8     4    16   ar
     9     4    20   ar
    10     4    43    1
    11     5     6    1
    12     5     8    1
    13     5    10    1
    14     5    11    1
    15     6     7    1
    16     6    25    1
    17     7     9    1
    18     7    26    1
    19     8    27    1
    20     8    28    1
    21     9    29    1
    22     9    30    1
    23    10    12    1
    24    10    31    1
    25    11    14    1
    26    11    32    1
    27    11    33    1
    28    12    16    1
    29    12    34    1
    30    12    35    1
    31    13    15    1
    32    13    36    1
    33    13    37    1
    34    14    38    1
    35    14    39    1
    36    14    40    1
    37    15    17    1
    38    15    41    1
    39    15    42    1
    40    16    17   ar
    41    17    18   ar
    42    18    20   ar
    43    18    21   ar
    44    19    44    1
    45    19    45    1
    46    19    46    1
    47    20    22   ar
    48    21    23   ar
    49    21    47    1
    50    22    24   ar
    51    22    48    1
    52    23    24   ar
    53    23    49    1
    54    24    50    1
