@<TRIPOS>MOLECULE
IMPHY010201
 77 83 0 0 0
SMALL
GASTEIGER

@<TRIPOS>ATOM
      1 O           7.8725   -1.3704    0.0000 O.3     1  UNL1       -0.3395
      2 O           8.5634    0.0644    0.0000 O.3     1  UNL1       -0.3440
      3 O           5.6163    1.7999    0.0000 O.3     1  UNL1       -0.3874
      4 O           6.1234   -1.8083    0.0000 O.3     1  UNL1       -0.4581
      5 O           4.5743    1.9486    0.0000 O.3     1  UNL1       -0.3791
      6 O           8.6327    1.7574    0.0000 O.3     1  UNL1       -0.3789
      7 O           9.0340    2.4669    0.0000 O.3     1  UNL1       -0.3793
      8 O           7.8120   -2.1937    0.0000 O.2     1  UNL1       -0.2512
      9 N           3.7210    0.1799    0.0000 N.3     1  UNL1       -0.2955
     10 C           5.6676    0.5752    0.0000 C.3     1  UNL1        0.0512
     11 C           7.1918   -0.6403    0.0000 C.3     1  UNL1        0.1544
     12 C           6.3459    1.1161    0.0000 C.3     1  UNL1        0.0843
     13 C           4.6656    0.4691    0.0000 C.3     1  UNL1        0.0568
     14 C           5.6676   -0.2924    0.0000 C.3     1  UNL1        0.0178
     15 C           7.5682    0.1414    0.0000 C.3     1  UNL1        0.1162
     16 C           7.1918    0.9230    0.0000 C.3     1  UNL1        0.0472
     17 C           6.3459   -0.8333    0.0000 C.3     1  UNL1        0.1402
     18 C           4.9163   -0.7262    0.0000 C.3     1  UNL1       -0.0122
     19 C           4.9163    1.0090    0.0000 C.3     1  UNL1        0.0685
     20 C           6.2682    1.9802    0.0000 C.3     1  UNL1       -0.0153
     21 C           7.0659    2.3212    0.0000 C.3     1  UNL1        0.0147
     22 C           7.6367    1.6678    0.0000 C.3     1  UNL1        0.0718
     23 C           8.2131    0.4113    0.0000 C.3     1  UNL1        0.0064
     24 C           3.7210   -0.5720    0.0000 C.3     1  UNL1        0.0051
     25 C           8.2131    1.8958    0.0000 C.3     1  UNL1        0.0663
     26 C           4.1649   -0.2924    0.0000 C.3     1  UNL1       -0.0437
     27 C           4.1649    0.5752    0.0000 C.3     1  UNL1       -0.0254
     28 C           4.9163   -1.7262    0.0000 C.3     1  UNL1       -0.0580
     29 C           8.7604   -0.9143    0.0000 C.3     1  UNL1        0.1501
     30 C           2.9170    0.7746    0.0000 C.3     1  UNL1       -0.0035
     31 C           2.0000    0.3757    0.0000 C.3     1  UNL1       -0.0523
     32 C           6.8564   -2.4884    0.0000 C.2     1  UNL1        0.3043
     33 C           3.5894    2.1223    0.0000 C.3     1  UNL1        0.0368
     34 C           9.2083    0.9397    0.0000 C.3     1  UNL1        0.0368
     35 C           8.9498    3.4634    0.0000 C.3     1  UNL1        0.0368
     36 C           6.6339   -3.4634    0.0000 C.3     1  UNL1        0.0332
     37 H           4.2211    1.1936    0.0000 H       1  UNL1        0.0500
     38 H           5.6041   -1.1400    0.0000 H       1  UNL1        0.0351
     39 H           8.0409    0.8849    0.0000 H       1  UNL1        0.0383
     40 H           6.7843   -1.2718    0.0000 H       1  UNL1        0.0768
     41 H           5.3912    1.4075    0.0000 H       1  UNL1        0.0603
     42 H           6.0854    2.5726    0.0000 H       1  UNL1        0.0297
     43 H           5.6598    1.8604    0.0000 H       1  UNL1        0.0297
     44 H           7.0452    3.1709    0.0000 H       1  UNL1        0.0352
     45 H           7.8676    2.2432    0.0000 H       1  UNL1        0.0604
     46 H           8.3750   -0.1872    0.0000 H       1  UNL1        0.0319
     47 H           8.8277    0.4930    0.0000 H       1  UNL1        0.0319
     48 H           3.1015   -0.5455    0.0000 H       1  UNL1        0.0432
     49 H           3.6680   -1.1897    0.0000 H       1  UNL1        0.0432
     50 H           8.1349    2.5109    0.0000 H       1  UNL1        0.0600
     51 H           3.5544   -0.1848    0.0000 H       1  UNL1        0.0272
     52 H           3.9529   -0.8750    0.0000 H       1  UNL1        0.0272
     53 H           3.9529    1.1578    0.0000 H       1  UNL1        0.0290
     54 H           3.5544    0.4675    0.0000 H       1  UNL1        0.0290
     55 H           5.7572    2.4037    0.0000 H       1  UNL1        0.2102
     56 H           4.2963   -1.7262    0.0000 H       1  UNL1        0.0236
     57 H           4.9163   -2.3462    0.0000 H       1  UNL1        0.0236
     58 H           5.5363   -1.7262    0.0000 H       1  UNL1        0.0236
     59 H           8.9919   -1.4894    0.0000 H       1  UNL1        0.0872
     60 H           9.3544   -0.7366    0.0000 H       1  UNL1        0.0872
     61 H           3.3666    1.2015    0.0000 H       1  UNL1        0.0424
     62 H           2.5747    1.2916    0.0000 H       1  UNL1        0.0424
     63 H           1.7527    0.9442    0.0000 H       1  UNL1        0.0242
     64 H           1.4315    0.1284    0.0000 H       1  UNL1        0.0242
     65 H           2.2473   -0.1928    0.0000 H       1  UNL1        0.0242
     66 H           3.6971    2.7329    0.0000 H       1  UNL1        0.0524
     67 H           2.9789    2.2299    0.0000 H       1  UNL1        0.0524
     68 H           3.4818    1.5117    0.0000 H       1  UNL1        0.0524
     69 H           8.7013    0.5828    0.0000 H       1  UNL1        0.0524
     70 H           9.5652    0.4327    0.0000 H       1  UNL1        0.0524
     71 H           9.7153    1.2966    0.0000 H       1  UNL1        0.0524
     72 H           9.5676    3.5156    0.0000 H       1  UNL1        0.0524
     73 H           8.8976    4.0812    0.0000 H       1  UNL1        0.0524
     74 H           8.3320    3.4112    0.0000 H       1  UNL1        0.0524
     75 H           6.0295   -3.3254    0.0000 H       1  UNL1        0.0342
     76 H           6.4960   -4.0678    0.0000 H       1  UNL1        0.0342
     77 H           7.2384   -3.6013    0.0000 H       1  UNL1        0.0342
@<TRIPOS>BOND
     1    11     1    1
     2     1    29    1
     3    15     2    1
     4     2    29    1
     5    12     3    1
     6     3    55    1
     7    17     4    1
     8     4    32    1
     9    19     5    1
    10     5    33    1
    11    22     6    1
    12     6    34    1
    13    25     7    1
    14     7    35    1
    15     8    32    2
    16     9    13    1
    17     9    24    1
    18     9    30    1
    19    10    12    1
    20    10    13    1
    21    10    14    1
    22    10    19    1
    23    11    13    1
    24    11    15    1
    25    11    17    1
    26    12    16    1
    27    12    20    1
    28    13    37    1
    29    14    17    1
    30    14    18    1
    31    14    38    1
    32    15    16    1
    33    15    23    1
    34    16    22    1
    35    16    39    1
    36    17    40    1
    37    18    24    1
    38    18    26    1
    39    18    28    1
    40    19    27    1
    41    19    41    1
    42    20    21    1
    43    20    42    1
    44    20    43    1
    45    21    22    1
    46    21    25    1
    47    21    44    1
    48    22    45    1
    49    23    25    1
    50    23    46    1
    51    23    47    1
    52    24    48    1
    53    24    49    1
    54    25    50    1
    55    26    27    1
    56    26    51    1
    57    26    52    1
    58    27    53    1
    59    27    54    1
    60    28    56    1
    61    28    57    1
    62    28    58    1
    63    29    59    1
    64    29    60    1
    65    30    31    1
    66    30    61    1
    67    30    62    1
    68    31    63    1
    69    31    64    1
    70    31    65    1
    71    32    36    1
    72    33    66    1
    73    33    67    1
    74    33    68    1
    75    34    69    1
    76    34    70    1
    77    34    71    1
    78    35    72    1
    79    35    73    1
    80    35    74    1
    81    36    75    1
    82    36    76    1
    83    36    77    1
