@<TRIPOS>MOLECULE
IMPHY007377
 29 30 0 0 0
SMALL
GASTEIGER

@<TRIPOS>ATOM
      1 O           7.7122    1.3807    0.0000 O.3     1  UNL1       -0.3825
      2 O           6.2565   -0.2361    0.0000 O.2     1  UNL1       -0.2728
      3 N           5.1350    1.1488    0.0000 N.am    1  UNL1       -0.2949
      4 N           2.5369   -0.3512    0.0000 N.pl3   1  UNL1       -0.3577
      5 C           5.2395    2.1433    0.0000 C.3     1  UNL1        0.0179
      6 C           6.2177    2.3512    0.0000 C.3     1  UNL1       -0.0024
      7 C           6.7177    1.4852    0.0000 C.3     1  UNL1        0.1325
      8 C           6.0486    0.7420    0.0000 C.2     1  UNL1        0.2445
      9 C           4.2690    0.6488    0.0000 C.3     1  UNL1        0.0415
     10 C           4.2690   -0.3512    0.0000 C.ar    1  UNL1       -0.0095
     11 C           3.4030   -0.8512    0.0000 C.ar    1  UNL1        0.0293
     12 C           5.1350   -0.8512    0.0000 C.ar    1  UNL1       -0.0553
     13 C           3.4030   -1.8512    0.0000 C.ar    1  UNL1       -0.0407
     14 C           5.1350   -1.8512    0.0000 C.ar    1  UNL1       -0.0613
     15 C           4.2690   -2.3512    0.0000 C.ar    1  UNL1       -0.0600
     16 H           5.1747    2.7599    0.0000 H       1  UNL1        0.0465
     17 H           4.6195    2.1433    0.0000 H       1  UNL1        0.0465
     18 H           6.7841    2.6034    0.0000 H       1  UNL1        0.0310
     19 H           6.0261    2.9409    0.0000 H       1  UNL1        0.0310
     20 H           6.9399    0.9064    0.0000 H       1  UNL1        0.0691
     21 H           4.0569    1.2314    0.0000 H       1  UNL1        0.0514
     22 H           3.6584    0.5411    0.0000 H       1  UNL1        0.0514
     23 H           8.0766    1.8822    0.0000 H       1  UNL1        0.2104
     24 H           5.6720   -0.5412    0.0000 H       1  UNL1        0.0621
     25 H           2.8660   -2.1612    0.0000 H       1  UNL1        0.0636
     26 H           5.6720   -2.1612    0.0000 H       1  UNL1        0.0618
     27 H           4.2690   -2.9712    0.0000 H       1  UNL1        0.0618
     28 H           2.0000   -0.6612    0.0000 H       1  UNL1        0.1423
     29 H           2.5369    0.2688    0.0000 H       1  UNL1        0.1423
@<TRIPOS>BOND
     1     7     1    1
     2     1    23    1
     3     2     8    2
     4     3     5    1
     5     3     8   am
     6     3     9    1
     7     4    11    1
     8     4    28    1
     9     4    29    1
    10     5     6    1
    11     5    16    1
    12     5    17    1
    13     6     7    1
    14     6    18    1
    15     6    19    1
    16     7     8    1
    17     7    20    1
    18     9    10    1
    19     9    21    1
    20     9    22    1
    21    10    11   ar
    22    10    12   ar
    23    11    13   ar
    24    12    14   ar
    25    12    24    1
    26    13    15   ar
    27    13    25    1
    28    14    15   ar
    29    14    26    1
    30    15    27    1
