@<TRIPOS>MOLECULE
IMPHY010003
 34 34 0 0 0
SMALL
GASTEIGER

@<TRIPOS>ATOM
      1 O           5.5981    2.1900    0.0000 O.3     1  UNL1       -0.3880
      2 C           3.0000   -1.3100    0.0000 C.3     1  UNL1       -0.0062
      3 C           3.0000   -2.3100    0.0000 C.3     1  UNL1       -0.0253
      4 C           3.8660   -0.8100    0.0000 C.2     1  UNL1       -0.0387
      5 C           2.0000   -1.3100    0.0000 C.3     1  UNL1       -0.0555
      6 C           2.5000   -0.4440    0.0000 C.3     1  UNL1       -0.0555
      7 C           4.7320   -1.3100    0.0000 C.2     1  UNL1       -0.0471
      8 C           3.8660   -2.8100    0.0000 C.2     1  UNL1       -0.0829
      9 C           4.7320   -2.3100    0.0000 C.2     1  UNL1       -0.0625
     10 C           3.8660    0.1900    0.0000 C.2     1  UNL1       -0.0593
     11 C           5.5981   -0.8100    0.0000 C.3     1  UNL1       -0.0394
     12 C           4.7320    0.6900    0.0000 C.2     1  UNL1       -0.0559
     13 C           4.7320    1.6900    0.0000 C.3     1  UNL1        0.0708
     14 C           3.8660    2.1900    0.0000 C.3     1  UNL1       -0.0353
     15 H           2.3894   -2.2023    0.0000 H       1  UNL1        0.0316
     16 H           2.7880   -2.8926    0.0000 H       1  UNL1        0.0316
     17 H           2.0000   -0.6900    0.0000 H       1  UNL1        0.0238
     18 H           3.0369   -0.1340    0.0000 H       1  UNL1        0.0238
     19 H           2.1900    0.0930    0.0000 H       1  UNL1        0.0238
     20 H           1.9631   -0.7540    0.0000 H       1  UNL1        0.0238
     21 H           1.3800   -1.3100    0.0000 H       1  UNL1        0.0238
     22 H           2.0000   -1.9300    0.0000 H       1  UNL1        0.0238
     23 H           3.8660   -3.4300    0.0000 H       1  UNL1        0.0572
     24 H           5.2690   -2.6200    0.0000 H       1  UNL1        0.0617
     25 H           3.3291    0.5000    0.0000 H       1  UNL1        0.0618
     26 H           5.9081   -1.3469    0.0000 H       1  UNL1        0.0278
     27 H           6.1350   -0.5000    0.0000 H       1  UNL1        0.0278
     28 H           5.2881   -0.2731    0.0000 H       1  UNL1        0.0278
     29 H           5.2690    0.3800    0.0000 H       1  UNL1        0.0597
     30 H           4.7320    2.3100    0.0000 H       1  UNL1        0.0635
     31 H           4.1760    2.7269    0.0000 H       1  UNL1        0.0258
     32 H           3.3291    2.5000    0.0000 H       1  UNL1        0.0258
     33 H           3.5560    1.6531    0.0000 H       1  UNL1        0.0258
     34 H           5.5981    2.8100    0.0000 H       1  UNL1        0.2102
@<TRIPOS>BOND
     1     1    13    1
     2     1    34    1
     3     2     3    1
     4     2     4    1
     5     2     5    1
     6     2     6    1
     7     3     8    1
     8     3    15    1
     9     3    16    1
    10     4     7    2
    11     4    10    1
    12     5    17    1
    13     5    21    1
    14     5    22    1
    15     6    18    1
    16     6    19    1
    17     6    20    1
    18     7     9    1
    19     7    11    1
    20     8     9    2
    21     8    23    1
    22     9    24    1
    23    10    12    2
    24    10    25    1
    25    11    26    1
    26    11    27    1
    27    11    28    1
    28    12    13    1
    29    12    29    1
    30    13    14    1
    31    13    30    1
    32    14    31    1
    33    14    32    1
    34    14    33    1
