@<TRIPOS>MOLECULE
IMPHY010975
 51 52 0 0 0
SMALL
GASTEIGER

@<TRIPOS>ATOM
      1 O           9.7167   -0.5627    0.0000 O.3     1  UNL1       -0.3899
      2 O           6.2216   -0.3500    0.0000 O.3     1  UNL1       -0.4581
      3 O           4.7265   -0.1691    0.0000 O.3     1  UNL1       -0.3745
      4 O           3.6473    1.9680    0.0000 O.3     1  UNL1       -0.4583
      5 O           6.5817    1.3442    0.0000 O.2     1  UNL1       -0.2474
      6 O           2.0000    1.4328    0.0000 O.2     1  UNL1       -0.2512
      7 N           8.4598   -2.8179    0.0000 N.3     1  UNL1       -0.2895
      8 C           8.4598   -1.8179    0.0000 C.3     1  UNL1        0.0611
      9 C           9.4060   -1.5132    0.0000 C.3     1  UNL1        0.0758
     10 C           9.4060   -3.1227    0.0000 C.3     1  UNL1        0.0023
     11 C           9.9897   -2.3179    0.0000 C.3     1  UNL1       -0.0122
     12 C           7.5088   -1.5089    0.0000 C.2     1  UNL1       -0.0158
     13 C           7.5088   -3.1270    0.0000 C.3     1  UNL1        0.0182
     14 C           6.9210   -2.3179    0.0000 C.2     1  UNL1       -0.0661
     15 C           7.1998   -0.5579    0.0000 C.3     1  UNL1        0.1152
     16 C           4.9344    0.8090    0.0000 C.3     1  UNL1        0.2012
     17 C           5.1424    1.7872    0.0000 C.3     1  UNL1       -0.0037
     18 C           3.9563    1.0169    0.0000 C.3     1  UNL1        0.1395
     19 C           5.9126    0.6011    0.0000 C.2     1  UNL1        0.3435
     20 C           4.3992    2.4563    0.0000 C.3     1  UNL1       -0.0594
     21 C           6.0934    2.0962    0.0000 C.3     1  UNL1       -0.0594
     22 C           3.2872    0.2738    0.0000 C.3     1  UNL1       -0.0244
     23 C           2.6691    2.1759    0.0000 C.2     1  UNL1        0.3043
     24 C           2.3601    3.1270    0.0000 C.3     1  UNL1        0.0332
     25 H           8.4609   -0.9679    0.0000 H       1  UNL1        0.0536
     26 H           8.9686   -1.0738    0.0000 H       1  UNL1        0.0612
     27 H           9.1550   -3.6896    0.0000 H       1  UNL1        0.0428
     28 H           9.9434   -3.4319    0.0000 H       1  UNL1        0.0428
     29 H          10.4505   -2.7327    0.0000 H       1  UNL1        0.0303
     30 H          10.4505   -1.9032    0.0000 H       1  UNL1        0.0303
     31 H           6.9718   -3.4370    0.0000 H       1  UNL1        0.0470
     32 H           7.7610   -3.6934    0.0000 H       1  UNL1        0.0470
     33 H           6.3010   -2.3179    0.0000 H       1  UNL1        0.0586
     34 H           7.8137   -0.4716    0.0000 H       1  UNL1        0.0746
     35 H           7.2214    0.0618    0.0000 H       1  UNL1        0.0746
     36 H          10.3234   -0.4348    0.0000 H       1  UNL1        0.2099
     37 H           4.5527    1.5956    0.0000 H       1  UNL1        0.0330
     38 H           3.1249    1.1937    0.0000 H       1  UNL1        0.0766
     39 H           4.8141    2.9170    0.0000 H       1  UNL1        0.0233
     40 H           3.9385    2.8712    0.0000 H       1  UNL1        0.0233
     41 H           3.9844    1.9956    0.0000 H       1  UNL1        0.0233
     42 H           6.2850    1.5065    0.0000 H       1  UNL1        0.0233
     43 H           6.6831    2.2878    0.0000 H       1  UNL1        0.0233
     44 H           5.9018    2.6858    0.0000 H       1  UNL1        0.0233
     45 H           2.8264    0.6886    0.0000 H       1  UNL1        0.0266
     46 H           2.8723   -0.1870    0.0000 H       1  UNL1        0.0266
     47 H           3.7479   -0.1411    0.0000 H       1  UNL1        0.0266
     48 H           4.1369   -0.3607    0.0000 H       1  UNL1        0.2110
     49 H           2.9498    3.3185    0.0000 H       1  UNL1        0.0342
     50 H           2.1685    3.7166    0.0000 H       1  UNL1        0.0342
     51 H           1.7705    2.9354    0.0000 H       1  UNL1        0.0342
@<TRIPOS>BOND
     1     9     1    1
     2     1    36    1
     3     2    15    1
     4     2    19    1
     5     3    16    1
     6     3    48    1
     7     4    18    1
     8     4    23    1
     9     5    19    2
    10     6    23    2
    11     7     8    1
    12     7    10    1
    13     7    13    1
    14     8     9    1
    15     8    12    1
    16     8    25    1
    17     9    11    1
    18     9    26    1
    19    10    11    1
    20    10    27    1
    21    10    28    1
    22    11    29    1
    23    11    30    1
    24    12    14    2
    25    12    15    1
    26    13    14    1
    27    13    31    1
    28    13    32    1
    29    14    33    1
    30    15    34    1
    31    15    35    1
    32    16    17    1
    33    16    18    1
    34    16    19    1
    35    17    20    1
    36    17    21    1
    37    17    37    1
    38    18    22    1
    39    18    38    1
    40    20    39    1
    41    20    40    1
    42    20    41    1
    43    21    42    1
    44    21    43    1
    45    21    44    1
    46    22    45    1
    47    22    46    1
    48    22    47    1
    49    23    24    1
    50    24    49    1
    51    24    50    1
    52    24    51    1
