@<TRIPOS>MOLECULE
IMPHY001957
 52 54 0 0 0
SMALL
GASTEIGER

@<TRIPOS>ATOM
      1 O           5.5220    0.5159    0.0000 O.3     1  UNL1       -0.4591
      2 O           2.9239    0.0159    0.0000 O.3     1  UNL1       -0.4581
      3 O           4.8668   -2.6630    0.0000 O.3     1  UNL1       -0.3846
      4 O           3.0035   -2.4698    0.0000 O.3     1  UNL1       -0.3754
      5 O           6.9662   -0.5716    0.0000 O.2     1  UNL1       -0.2504
      6 O           2.0000   -1.3667    0.0000 O.2     1  UNL1       -0.2475
      7 N           4.8651    2.9878    0.0000 N.3     1  UNL1       -0.2886
      8 C           4.6559    2.0160    0.0000 C.3     1  UNL1        0.0723
      9 C           5.5220    1.5159    0.0000 C.3     1  UNL1        0.1235
     10 C           6.2590    2.1830    0.0000 C.3     1  UNL1       -0.0010
     11 C           5.8539    3.0908    0.0000 C.3     1  UNL1        0.0033
     12 C           3.7899    1.5159    0.0000 C.2     1  UNL1       -0.0148
     13 C           5.1310   -0.8251    0.0000 C.3     1  UNL1        0.0903
     14 C           4.6310   -1.6912    0.0000 C.3     1  UNL1        0.1150
     15 C           5.3695    2.1149    0.0000 C.3     1  UNL1        0.0182
     16 C           3.6310   -1.6912    0.0000 C.3     1  UNL1        0.1885
     17 C           4.7748    1.3008    0.0000 C.2     1  UNL1       -0.0660
     18 C           4.3118   -0.2516    0.0000 C.3     1  UNL1       -0.0310
     19 C           5.9970   -0.3251    0.0000 C.2     1  UNL1        0.3136
     20 C           3.7899    0.5159    0.0000 C.3     1  UNL1        0.1153
     21 C           5.6028   -1.9269    0.0000 C.3     1  UNL1       -0.0320
     22 C           2.9239   -0.9841    0.0000 C.2     1  UNL1        0.3421
     23 C           3.6985   -2.6889    0.0000 C.3     1  UNL1       -0.0227
     24 C           3.6047   -0.9586    0.0000 C.3     1  UNL1       -0.0618
     25 C           4.3990    0.7446    0.0000 C.3     1  UNL1       -0.0618
     26 H           4.2309    2.7521    0.0000 H       1  UNL1        0.0547
     27 H           6.2989    1.1712    0.0000 H       1  UNL1        0.0753
     28 H           6.6244    1.6822    0.0000 H       1  UNL1        0.0314
     29 H           6.7955    2.4938    0.0000 H       1  UNL1        0.0314
     30 H           6.4435    3.2826    0.0000 H       1  UNL1        0.0428
     31 H           5.7251    3.6973    0.0000 H       1  UNL1        0.0428
     32 H           5.1580   -0.2057    0.0000 H       1  UNL1        0.0445
     33 H           5.8148    1.6835    0.0000 H       1  UNL1        0.0470
     34 H           5.8583    2.4963    0.0000 H       1  UNL1        0.0470
     35 H           4.9946    0.7211    0.0000 H       1  UNL1        0.0586
     36 H           3.7499    0.0105    0.0000 H       1  UNL1        0.0304
     37 H           4.0020   -0.0667    0.0000 H       1  UNL1        0.0746
     38 H           4.4005    0.6236    0.0000 H       1  UNL1        0.0746
     39 H           5.4566   -2.5294    0.0000 H       1  UNL1        0.0259
     40 H           6.2053   -2.0731    0.0000 H       1  UNL1        0.0259
     41 H           5.7490   -1.3244    0.0000 H       1  UNL1        0.0259
     42 H           3.0799   -2.7307    0.0000 H       1  UNL1        0.0264
     43 H           3.7403   -3.3075    0.0000 H       1  UNL1        0.0264
     44 H           4.3170   -2.6470    0.0000 H       1  UNL1        0.0264
     45 H           3.1663   -0.5202    0.0000 H       1  UNL1        0.0233
     46 H           3.1663   -1.3970    0.0000 H       1  UNL1        0.0233
     47 H           4.0431   -1.3971    0.0000 H       1  UNL1        0.0233
     48 H           5.0166    0.6906    0.0000 H       1  UNL1        0.0233
     49 H           4.4530    1.3623    0.0000 H       1  UNL1        0.0233
     50 H           3.7814    0.7987    0.0000 H       1  UNL1        0.0233
     51 H           4.4180   -3.0908    0.0000 H       1  UNL1        0.2103
     52 H           2.3909   -2.3743    0.0000 H       1  UNL1        0.2110
@<TRIPOS>BOND
     1     1     9    1
     2     1    19    1
     3     2    20    1
     4     2    22    1
     5    14     3    1
     6     3    51    1
     7    16     4    1
     8     4    52    1
     9     5    19    2
    10     6    22    2
    11     7     8    1
    12     7    11    1
    13     7    15    1
    14     8     9    1
    15     8    12    1
    16     8    26    1
    17     9    10    1
    18     9    27    1
    19    10    11    1
    20    10    28    1
    21    10    29    1
    22    11    30    1
    23    11    31    1
    24    12    17    2
    25    12    20    1
    26    13    14    1
    27    13    18    1
    28    13    19    1
    29    13    32    1
    30    14    16    1
    31    14    21    1
    32    15    17    1
    33    15    33    1
    34    15    34    1
    35    16    22    1
    36    16    23    1
    37    17    35    1
    38    18    24    1
    39    18    25    1
    40    18    36    1
    41    20    37    1
    42    20    38    1
    43    21    39    1
    44    21    40    1
    45    21    41    1
    46    23    42    1
    47    23    43    1
    48    23    44    1
    49    24    45    1
    50    24    46    1
    51    24    47    1
    52    25    48    1
    53    25    49    1
    54    25    50    1
