@<TRIPOS>MOLECULE
IMPHY008563
 44 46 0 0 0
SMALL
GASTEIGER

@<TRIPOS>ATOM
      1 O           9.8660   -1.4862    0.0000 O.3     1  UNL1       -0.4833
      2 O          11.5981    0.5138    0.0000 O.3     1  UNL1       -0.3875
      3 O           8.1176    1.5484    0.0000 O.3     1  UNL1       -0.5057
      4 O           6.3397    1.5380    0.0000 O.2     1  UNL1       -0.2872
      5 C          10.7320   -0.9862    0.0000 C.3     1  UNL1        0.1310
      6 C          10.7320    0.0138    0.0000 C.3     1  UNL1        0.0984
      7 C           9.8660    0.5138    0.0000 C.3     1  UNL1        0.0091
      8 C           9.0000    0.0138    0.0000 C.ar    1  UNL1        0.0389
      9 C          11.7320   -0.9862    0.0000 C.3     1  UNL1       -0.0227
     10 C          11.2320   -1.8522    0.0000 C.3     1  UNL1       -0.0227
     11 C           9.0000   -0.9862    0.0000 C.ar    1  UNL1        0.1282
     12 C           8.1060    0.5485    0.0000 C.ar    1  UNL1        0.1344
     13 C           8.1060   -1.5208    0.0000 C.ar    1  UNL1       -0.0187
     14 C           7.2000    0.0346    0.0000 C.ar    1  UNL1        0.0635
     15 C           7.2000   -1.0070    0.0000 C.ar    1  UNL1       -0.0439
     16 C           6.3359    0.5380    0.0000 C.2     1  UNL1        0.1896
     17 C           5.4679    0.0413    0.0000 C.2     1  UNL1       -0.0137
     18 C           4.6038    0.5447    0.0000 C.2     1  UNL1       -0.0510
     19 C           3.7359    0.0480    0.0000 C.ar    1  UNL1       -0.0249
     20 C           2.8718    0.5513    0.0000 C.ar    1  UNL1       -0.0546
     21 C           3.7320   -0.9520    0.0000 C.ar    1  UNL1       -0.0546
     22 C           2.0038    0.0547    0.0000 C.ar    1  UNL1       -0.0612
     23 C           2.8641   -1.4486    0.0000 C.ar    1  UNL1       -0.0612
     24 C           2.0000   -0.9453    0.0000 C.ar    1  UNL1       -0.0617
     25 H          11.2690   -0.2962    0.0000 H       1  UNL1        0.0636
     26 H          10.2645    0.9888    0.0000 H       1  UNL1        0.0342
     27 H           9.4675    0.9888    0.0000 H       1  UNL1        0.0342
     28 H          10.6951   -2.1622    0.0000 H       1  UNL1        0.0269
     29 H          11.7320   -1.6062    0.0000 H       1  UNL1        0.0269
     30 H          12.3520   -0.9862    0.0000 H       1  UNL1        0.0269
     31 H          11.7320   -0.3662    0.0000 H       1  UNL1        0.0269
     32 H          11.5420   -2.3891    0.0000 H       1  UNL1        0.0269
     33 H          11.7690   -1.5422    0.0000 H       1  UNL1        0.0269
     34 H           8.1132   -2.1408    0.0000 H       1  UNL1        0.0654
     35 H          11.5981    1.1338    0.0000 H       1  UNL1        0.2100
     36 H           6.6642   -1.3190    0.0000 H       1  UNL1        0.0627
     37 H           8.6581    1.8522    0.0000 H       1  UNL1        0.2922
     38 H           5.4655   -0.5787    0.0000 H       1  UNL1        0.0656
     39 H           4.6062    1.1646    0.0000 H       1  UNL1        0.0625
     40 H           2.8742    1.1713    0.0000 H       1  UNL1        0.0623
     41 H           4.2678   -1.2641    0.0000 H       1  UNL1        0.0623
     42 H           1.4681    0.3667    0.0000 H       1  UNL1        0.0618
     43 H           2.8617   -2.0686    0.0000 H       1  UNL1        0.0618
     44 H           1.4619   -1.2532    0.0000 H       1  UNL1        0.0618
@<TRIPOS>BOND
     1     1     5    1
     2     1    11    1
     3     2     6    1
     4     2    35    1
     5     3    12    1
     6     3    37    1
     7     4    16    2
     8     5     6    1
     9     5     9    1
    10     5    10    1
    11     6     7    1
    12     6    25    1
    13     7     8    1
    14     7    26    1
    15     7    27    1
    16     8    11   ar
    17     8    12   ar
    18     9    29    1
    19     9    30    1
    20     9    31    1
    21    10    28    1
    22    10    32    1
    23    10    33    1
    24    11    13   ar
    25    12    14   ar
    26    13    15   ar
    27    13    34    1
    28    14    15   ar
    29    14    16    1
    30    15    36    1
    31    16    17    1
    32    17    18    2
    33    17    38    1
    34    18    19    1
    35    18    39    1
    36    19    20   ar
    37    19    21   ar
    38    20    22   ar
    39    20    40    1
    40    21    23   ar
    41    21    41    1
    42    22    24   ar
    43    22    42    1
    44    23    24   ar
    45    23    43    1
    46    24    44    1
