@<TRIPOS>MOLECULE
IMPHY008108
 45 46 0 0 0
SMALL
GASTEIGER

@<TRIPOS>ATOM
      1 O           3.4030    3.2500    0.0000 O.3     1  UNL1       -0.4913
      2 O           6.8671    3.2500    0.0000 O.3     1  UNL1       -0.4913
      3 O           5.1350    4.2500    0.0000 O.3     1  UNL1       -0.4885
      4 O           4.2690   -4.2500    0.0000 O.3     1  UNL1       -0.4915
      5 O           2.5369   -3.2500    0.0000 O.3     1  UNL1       -0.5033
      6 C           5.1350    0.2500    0.0000 C.3     1  UNL1       -0.0235
      7 C           4.2690   -0.2500    0.0000 C.3     1  UNL1       -0.0236
      8 C           5.1350    1.2500    0.0000 C.ar    1  UNL1       -0.0399
      9 C           4.2690   -1.2500    0.0000 C.ar    1  UNL1       -0.0434
     10 C           6.0010    1.7500    0.0000 C.ar    1  UNL1       -0.0129
     11 C           4.2690    1.7500    0.0000 C.ar    1  UNL1       -0.0129
     12 C           4.2690    2.7500    0.0000 C.ar    1  UNL1        0.1654
     13 C           6.0010    2.7500    0.0000 C.ar    1  UNL1        0.1654
     14 C           3.4030   -1.7500    0.0000 C.ar    1  UNL1       -0.0133
     15 C           5.1350    3.2500    0.0000 C.ar    1  UNL1        0.2035
     16 C           5.1350   -1.7500    0.0000 C.ar    1  UNL1       -0.0549
     17 C           3.4030   -2.7500    0.0000 C.ar    1  UNL1        0.1587
     18 C           5.1350   -2.7500    0.0000 C.ar    1  UNL1       -0.0161
     19 C           4.2690   -3.2500    0.0000 C.ar    1  UNL1        0.1613
     20 C           2.5369    2.7500    0.0000 C.3     1  UNL1        0.0790
     21 C           7.7331    2.7500    0.0000 C.3     1  UNL1        0.0790
     22 C           6.0010    4.7500    0.0000 C.3     1  UNL1        0.0791
     23 C           5.1350   -4.7500    0.0000 C.3     1  UNL1        0.0790
     24 H           5.3471   -0.3326    0.0000 H       1  UNL1        0.0316
     25 H           5.7456    0.3577    0.0000 H       1  UNL1        0.0316
     26 H           4.0569    0.3326    0.0000 H       1  UNL1        0.0316
     27 H           3.6584   -0.3577    0.0000 H       1  UNL1        0.0316
     28 H           6.5380    1.4400    0.0000 H       1  UNL1        0.0658
     29 H           3.7320    1.4400    0.0000 H       1  UNL1        0.0658
     30 H           2.8660   -1.4400    0.0000 H       1  UNL1        0.0658
     31 H           5.6720   -1.4400    0.0000 H       1  UNL1        0.0621
     32 H           5.6720   -3.0600    0.0000 H       1  UNL1        0.0655
     33 H           2.2269    3.2869    0.0000 H       1  UNL1        0.0660
     34 H           2.0000    2.4400    0.0000 H       1  UNL1        0.0660
     35 H           2.8469    2.2131    0.0000 H       1  UNL1        0.0660
     36 H           7.4231    2.2131    0.0000 H       1  UNL1        0.0660
     37 H           8.2700    2.4400    0.0000 H       1  UNL1        0.0660
     38 H           8.0431    3.2869    0.0000 H       1  UNL1        0.0660
     39 H           2.0000   -2.9400    0.0000 H       1  UNL1        0.2923
     40 H           6.3110    4.2131    0.0000 H       1  UNL1        0.0660
     41 H           6.5380    5.0600    0.0000 H       1  UNL1        0.0660
     42 H           5.6910    5.2869    0.0000 H       1  UNL1        0.0660
     43 H           4.8250   -5.2869    0.0000 H       1  UNL1        0.0660
     44 H           5.6720   -5.0600    0.0000 H       1  UNL1        0.0660
     45 H           5.4450   -4.2131    0.0000 H       1  UNL1        0.0660
@<TRIPOS>BOND
     1     1    12    1
     2     1    20    1
     3     2    13    1
     4     2    21    1
     5     3    15    1
     6     3    22    1
     7     4    19    1
     8     4    23    1
     9     5    17    1
    10     5    39    1
    11     6     7    1
    12     6     8    1
    13     6    24    1
    14     6    25    1
    15     7     9    1
    16     7    26    1
    17     7    27    1
    18     8    10   ar
    19     8    11   ar
    20     9    14   ar
    21     9    16   ar
    22    10    13   ar
    23    10    28    1
    24    11    12   ar
    25    11    29    1
    26    12    15   ar
    27    13    15   ar
    28    14    17   ar
    29    14    30    1
    30    16    18   ar
    31    16    31    1
    32    17    19   ar
    33    18    19   ar
    34    18    32    1
    35    20    33    1
    36    20    34    1
    37    20    35    1
    38    21    36    1
    39    21    37    1
    40    21    38    1
    41    22    40    1
    42    22    41    1
    43    22    42    1
    44    23    43    1
    45    23    44    1
    46    23    45    1
