@<TRIPOS>MOLECULE
IMPHY001630
 54 56 0 0 0
SMALL
GASTEIGER

@<TRIPOS>ATOM
      1 O           9.5331    0.3842    0.0000 O.3     1  UNL1       -0.3485
      2 O           6.8671   -1.0950    0.0000 O.3     1  UNL1       -0.3094
      3 O           6.0010    0.4050    0.0000 O.2     1  UNL1       -0.4700
      4 O           5.1350   -1.0950    0.0000 O.3     1  UNL1       -0.3404
      5 O           9.1170   -1.0014    0.0000 O.3     1  UNL1       -0.3642
      6 O           6.8671   -3.0950    0.0000 O.3     1  UNL1       -0.3841
      7 O           5.1350   -4.0950    0.0000 O.3     1  UNL1       -0.3864
      8 O           3.4030   -3.0950    0.0000 O.3     1  UNL1       -0.3865
      9 O           6.0010    3.4050    0.0000 O.3     1  UNL1       -0.4646
     10 O           2.5369   -1.5950    0.0000 O.3     1  UNL1       -0.3924
     11 O           7.7331    3.4050    0.0000 O.2     1  UNL1       -0.2452
     12 C           7.7331    0.4050    0.0000 C.3     1  UNL1        0.0822
     13 C           7.7331    1.4050    0.0000 C.3     1  UNL1        0.0093
     14 C           8.6270   -0.1297    0.0000 C.3     1  UNL1        0.1734
     15 C           6.8671   -0.0950    0.0000 C.3     1  UNL1        0.2117
     16 C           8.6270    1.9397    0.0000 C.3     1  UNL1       -0.0216
     17 C           6.8671    1.9050    0.0000 C.2     1  UNL1        0.0745
     18 C           9.5331    1.4258    0.0000 C.3     1  UNL1        0.0515
     19 C           6.0010   -1.5950    0.0000 C.3     1  UNL1        0.1918
     20 C           6.0010   -2.5950    0.0000 C.3     1  UNL1        0.1342
     21 C           5.1350   -3.0950    0.0000 C.3     1  UNL1        0.1141
     22 C           8.1171   -0.9898    0.0000 C.3     1  UNL1       -0.0102
     23 C           4.2690   -2.5950    0.0000 C.3     1  UNL1        0.1119
     24 C           4.2690   -1.5950    0.0000 C.3     1  UNL1        0.1130
     25 C           6.0010    1.4050    0.0000 C.2     1  UNL1        0.0981
     26 C           6.8671    2.9050    0.0000 C.2     1  UNL1        0.3381
     27 C           3.4030   -1.0950    0.0000 C.3     1  UNL1        0.0730
     28 C           6.0010    4.4050    0.0000 C.3     1  UNL1        0.0820
     29 H           7.7283   -0.2150    0.0000 H       1  UNL1        0.0420
     30 H           7.7283    2.0250    0.0000 H       1  UNL1        0.0359
     31 H           6.3301   -0.4050    0.0000 H       1  UNL1        0.1061
     32 H           9.0207    2.4187    0.0000 H       1  UNL1        0.0293
     33 H           8.2224    2.4094    0.0000 H       1  UNL1        0.0293
     34 H          10.1440    1.3197    0.0000 H       1  UNL1        0.0561
     35 H           9.7422    2.0095    0.0000 H       1  UNL1        0.0561
     36 H           6.0010   -0.9750    0.0000 H       1  UNL1        0.0939
     37 H           6.0010   -3.2150    0.0000 H       1  UNL1        0.0671
     38 H           4.5981   -3.4050    0.0000 H       1  UNL1        0.0648
     39 H           7.5837   -0.6737    0.0000 H       1  UNL1        0.0281
     40 H           7.8009   -1.5232    0.0000 H       1  UNL1        0.0281
     41 H           8.6504   -1.3060    0.0000 H       1  UNL1        0.0281
     42 H           3.7320   -2.2850    0.0000 H       1  UNL1        0.0647
     43 H           4.2690   -0.9750    0.0000 H       1  UNL1        0.0647
     44 H           5.4641    1.7150    0.0000 H       1  UNL1        0.1029
     45 H           9.7369   -1.0086    0.0000 H       1  UNL1        0.2128
     46 H           3.8015   -0.6201    0.0000 H       1  UNL1        0.0584
     47 H           3.0044   -0.6201    0.0000 H       1  UNL1        0.0584
     48 H           6.8671   -3.7150    0.0000 H       1  UNL1        0.2101
     49 H           4.5981   -4.4050    0.0000 H       1  UNL1        0.2100
     50 H           3.4030   -3.7150    0.0000 H       1  UNL1        0.2100
     51 H           2.0000   -1.2850    0.0000 H       1  UNL1        0.2095
     52 H           6.6210    4.4050    0.0000 H       1  UNL1        0.0661
     53 H           6.0010    5.0250    0.0000 H       1  UNL1        0.0661
     54 H           5.3810    4.4050    0.0000 H       1  UNL1        0.0661
@<TRIPOS>BOND
     1     1    14    1
     2     1    18    1
     3     2    15    1
     4    19     2    1
     5     3    15    1
     6     3    25    1
     7     4    19    1
     8     4    24    1
     9     5    14    1
    10     5    45    1
    11    20     6    1
    12     6    48    1
    13    21     7    1
    14     7    49    1
    15    23     8    1
    16     8    50    1
    17     9    26    1
    18     9    28    1
    19    10    27    1
    20    10    51    1
    21    11    26    2
    22    12    13    1
    23    12    14    1
    24    12    15    1
    25    12    29    1
    26    13    16    1
    27    13    17    1
    28    13    30    1
    29    14    22    1
    30    15    31    1
    31    16    18    1
    32    16    32    1
    33    16    33    1
    34    17    25    2
    35    17    26    1
    36    18    34    1
    37    18    35    1
    38    19    20    1
    39    19    36    1
    40    20    21    1
    41    20    37    1
    42    21    23    1
    43    21    38    1
    44    22    39    1
    45    22    40    1
    46    22    41    1
    47    23    24    1
    48    23    42    1
    49    24    27    1
    50    24    43    1
    51    25    44    1
    52    27    46    1
    53    27    47    1
    54    28    52    1
    55    28    53    1
    56    28    54    1
