@<TRIPOS>MOLECULE
IMPHY003127
 53 56 0 0 0
SMALL
GASTEIGER

@<TRIPOS>ATOM
      1 O           8.9942    1.6563    0.0000 O.3     1  UNL1       -0.4853
      2 O           7.2458   -1.3783    0.0000 O.3     1  UNL1       -0.5064
      3 C           9.8602    0.1563    0.0000 C.3     1  UNL1        0.0095
      4 C          10.3680   -0.7148    0.0000 C.3     1  UNL1       -0.0282
      5 C           9.4948   -1.2190    0.0000 C.3     1  UNL1       -0.0242
      6 C           8.9942   -0.3437    0.0000 C.3     1  UNL1        0.0032
      7 C           9.8602    1.1563    0.0000 C.3     1  UNL1        0.1115
      8 C          11.0874   -0.0298    0.0000 C.3     1  UNL1       -0.0457
      9 C          10.8273    0.9290    0.0000 C.3     1  UNL1       -0.0126
     10 C           8.1282    0.1563    0.0000 C.ar    1  UNL1        0.0396
     11 C           9.9930   -2.0860    0.0000 C.3     1  UNL1       -0.0590
     12 C           8.6277   -1.7172    0.0000 C.3     1  UNL1       -0.0590
     13 C          10.2286    2.0860    0.0000 C.3     1  UNL1       -0.0246
     14 C           8.1282    1.1563    0.0000 C.ar    1  UNL1        0.1285
     15 C           7.2342   -0.3783    0.0000 C.ar    1  UNL1        0.1240
     16 C           7.2342    1.6910    0.0000 C.ar    1  UNL1       -0.0162
     17 C           6.3282    0.1355    0.0000 C.ar    1  UNL1       -0.0165
     18 C           6.3282    1.1771    0.0000 C.ar    1  UNL1       -0.0404
     19 C           5.4641    1.6805    0.0000 C.3     1  UNL1       -0.0275
     20 C           4.5961    1.1838    0.0000 C.3     1  UNL1       -0.0491
     21 C           3.7320    1.6872    0.0000 C.3     1  UNL1       -0.0530
     22 C           2.8641    1.1905    0.0000 C.3     1  UNL1       -0.0559
     23 C           2.0000    1.6938    0.0000 C.3     1  UNL1       -0.0653
     24 H          10.4588    0.3180    0.0000 H       1  UNL1        0.0348
     25 H          10.7393   -1.2113    0.0000 H       1  UNL1        0.0310
     26 H           8.5549   -0.7812    0.0000 H       1  UNL1        0.0360
     27 H          11.4352   -0.5431    0.0000 H       1  UNL1        0.0269
     28 H          11.6509    0.2288    0.0000 H       1  UNL1        0.0269
     29 H          11.4442    0.9906    0.0000 H       1  UNL1        0.0304
     30 H          10.8679    1.5476    0.0000 H       1  UNL1        0.0304
     31 H           8.3188   -1.1796    0.0000 H       1  UNL1        0.0235
     32 H           8.0901   -2.0261    0.0000 H       1  UNL1        0.0235
     33 H           8.9366   -2.2547    0.0000 H       1  UNL1        0.0235
     34 H           9.4554   -2.3949    0.0000 H       1  UNL1        0.0235
     35 H          10.3019   -2.6236    0.0000 H       1  UNL1        0.0235
     36 H          10.5305   -1.7771    0.0000 H       1  UNL1        0.0235
     37 H          10.8050    1.8576    0.0000 H       1  UNL1        0.0268
     38 H          10.4570    2.6624    0.0000 H       1  UNL1        0.0268
     39 H           9.6522    2.3144    0.0000 H       1  UNL1        0.0268
     40 H           7.2414    2.3109    0.0000 H       1  UNL1        0.0657
     41 H           5.7924   -0.1766    0.0000 H       1  UNL1        0.0657
     42 H           6.7125   -1.6945    0.0000 H       1  UNL1        0.2921
     43 H           5.8644    2.1539    0.0000 H       1  UNL1        0.0313
     44 H           5.0674    2.1570    0.0000 H       1  UNL1        0.0313
     45 H           4.1958    0.7104    0.0000 H       1  UNL1        0.0268
     46 H           4.9928    0.7073    0.0000 H       1  UNL1        0.0268
     47 H           4.1324    2.1606    0.0000 H       1  UNL1        0.0265
     48 H           3.3353    2.1636    0.0000 H       1  UNL1        0.0265
     49 H           2.4637    0.7171    0.0000 H       1  UNL1        0.0263
     50 H           3.2608    0.7140    0.0000 H       1  UNL1        0.0263
     51 H           2.3121    2.2296    0.0000 H       1  UNL1        0.0230
     52 H           1.4643    2.0059    0.0000 H       1  UNL1        0.0230
     53 H           1.6879    1.1581    0.0000 H       1  UNL1        0.0230
@<TRIPOS>BOND
     1     1     7    1
     2     1    14    1
     3     2    15    1
     4     2    42    1
     5     3     4    1
     6     3     6    1
     7     3     7    1
     8     3    24    1
     9     4     5    1
    10     4     8    1
    11     4    25    1
    12     5     6    1
    13     5    11    1
    14     5    12    1
    15     6    10    1
    16     6    26    1
    17     7     9    1
    18     7    13    1
    19     8     9    1
    20     8    27    1
    21     8    28    1
    22     9    29    1
    23     9    30    1
    24    10    14   ar
    25    10    15   ar
    26    11    34    1
    27    11    35    1
    28    11    36    1
    29    12    31    1
    30    12    32    1
    31    12    33    1
    32    13    37    1
    33    13    38    1
    34    13    39    1
    35    14    16   ar
    36    15    17   ar
    37    16    18   ar
    38    16    40    1
    39    17    18   ar
    40    17    41    1
    41    18    19    1
    42    19    20    1
    43    19    43    1
    44    19    44    1
    45    20    21    1
    46    20    45    1
    47    20    46    1
    48    21    22    1
    49    21    47    1
    50    21    48    1
    51    22    23    1
    52    22    49    1
    53    22    50    1
    54    23    51    1
    55    23    52    1
    56    23    53    1
