@<TRIPOS>MOLECULE
IMPHY013189
 49 52 0 0 0
SMALL
GASTEIGER

@<TRIPOS>ATOM
      1 O           3.9061   -2.3557    0.0000 O.3     1  UNL1       -0.4814
      2 O           7.4260   -2.3557    0.0000 O.2     1  UNL1       -0.4618
      3 O           5.6660    0.6790    0.0000 O.3     1  UNL1       -0.5052
      4 O           7.4144    0.7136    0.0000 O.2     1  UNL1       -0.2863
      5 O          10.0525    2.2064    0.0000 O.3     1  UNL1       -0.4913
      6 O          11.7961   -0.7869    0.0000 O.3     1  UNL1       -0.4913
      7 O          11.7884    1.2131    0.0000 O.3     1  UNL1       -0.5009
      8 C           3.0000   -1.8418    0.0000 C.3     1  UNL1        0.1235
      9 C           4.8000   -0.8210    0.0000 C.ar    1  UNL1        0.0588
     10 C           4.8000   -1.8210    0.0000 C.ar    1  UNL1        0.1359
     11 C           3.0000   -0.8002    0.0000 C.2     1  UNL1       -0.0408
     12 C           6.5320   -0.8210    0.0000 C.ar    1  UNL1        0.1066
     13 C           3.9061   -0.2864    0.0000 C.2     1  UNL1       -0.0478
     14 C           2.0000   -1.8457    0.0000 C.3     1  UNL1       -0.0215
     15 C           2.5033   -2.7098    0.0000 C.3     1  UNL1       -0.0215
     16 C           5.6660   -0.3210    0.0000 C.ar    1  UNL1        0.1418
     17 C           6.5320   -1.8210    0.0000 C.ar    1  UNL1        0.1454
     18 C           5.6660   -2.3210    0.0000 C.ar    1  UNL1        0.0239
     19 C           7.4260   -0.2864    0.0000 C.ar    1  UNL1        0.2037
     20 C           8.3321   -0.8002    0.0000 C.ar    1  UNL1        0.0646
     21 C           9.1962   -0.2969    0.0000 C.ar    1  UNL1       -0.0041
     22 C           8.3321   -1.8418    0.0000 C.ar    1  UNL1        0.1038
     23 C          10.0641   -0.7935    0.0000 C.ar    1  UNL1       -0.0081
     24 C           9.1923    0.7031    0.0000 C.ar    1  UNL1       -0.0081
     25 C          10.0564    1.2065    0.0000 C.ar    1  UNL1        0.1656
     26 C          10.9282   -0.2902    0.0000 C.ar    1  UNL1        0.1656
     27 C          10.9243    0.7098    0.0000 C.ar    1  UNL1        0.2010
     28 C          10.9166    2.7098    0.0000 C.3     1  UNL1        0.0790
     29 C          11.8000   -1.7868    0.0000 C.3     1  UNL1        0.0790
     30 H           2.4643   -0.4881    0.0000 H       1  UNL1        0.0611
     31 H           3.9132    0.3336    0.0000 H       1  UNL1        0.0624
     32 H           1.9976   -1.2257    0.0000 H       1  UNL1        0.0271
     33 H           1.3800   -1.8481    0.0000 H       1  UNL1        0.0271
     34 H           2.0024   -2.4657    0.0000 H       1  UNL1        0.0271
     35 H           1.9652   -2.4018    0.0000 H       1  UNL1        0.0271
     36 H           2.1954   -3.2479    0.0000 H       1  UNL1        0.0271
     37 H           3.0415   -3.0177    0.0000 H       1  UNL1        0.0271
     38 H           5.6660   -2.9410    0.0000 H       1  UNL1        0.0691
     39 H           8.8678   -2.1539    0.0000 H       1  UNL1        0.1037
     40 H          10.0665   -1.4135    0.0000 H       1  UNL1        0.0661
     41 H           8.6542    1.0110    0.0000 H       1  UNL1        0.0661
     42 H           5.1291    0.9890    0.0000 H       1  UNL1        0.2922
     43 H          12.3266    0.9052    0.0000 H       1  UNL1        0.2924
     44 H          11.2287    2.1740    0.0000 H       1  UNL1        0.0660
     45 H          11.4524    3.0218    0.0000 H       1  UNL1        0.0660
     46 H          10.6046    3.2455    0.0000 H       1  UNL1        0.0660
     47 H          11.1800   -1.7892    0.0000 H       1  UNL1        0.0660
     48 H          11.8024   -2.4068    0.0000 H       1  UNL1        0.0660
     49 H          12.4200   -1.7845    0.0000 H       1  UNL1        0.0660
@<TRIPOS>BOND
     1     1     8    1
     2     1    10    1
     3     2    17   ar
     4     2    22   ar
     5     3    16    1
     6     3    42    1
     7     4    19    2
     8     5    25    1
     9     5    28    1
    10     6    26    1
    11     6    29    1
    12     7    27    1
    13     7    43    1
    14     8    11    1
    15     8    14    1
    16     8    15    1
    17     9    10   ar
    18     9    13    1
    19     9    16   ar
    20    10    18   ar
    21    11    13    2
    22    11    30    1
    23    12    16   ar
    24    12    17   ar
    25    12    19   ar
    26    13    31    1
    27    14    32    1
    28    14    33    1
    29    14    34    1
    30    15    35    1
    31    15    36    1
    32    15    37    1
    33    17    18   ar
    34    18    38    1
    35    19    20   ar
    36    20    21    1
    37    20    22   ar
    38    21    23   ar
    39    21    24   ar
    40    22    39    1
    41    23    26   ar
    42    23    40    1
    43    24    25   ar
    44    24    41    1
    45    25    27   ar
    46    26    27   ar
    47    28    44    1
    48    28    45    1
    49    28    46    1
    50    29    47    1
    51    29    48    1
    52    29    49    1
