@<TRIPOS>MOLECULE
IMPHY012053
 45 46 0 0 0
SMALL
GASTEIGER

@<TRIPOS>ATOM
      1 O           5.8671    0.7306    0.0000 O.3     1  UNL1       -0.3362
      2 O           6.8671   -0.2694    0.0000 O.3     1  UNL1       -0.3125
      3 O           5.1350   -0.2694    0.0000 O.3     1  UNL1       -0.3404
      4 O           8.1271    1.9906    0.0000 O.3     1  UNL1       -0.3837
      5 O           6.3671    3.2694    0.0000 O.3     1  UNL1       -0.3864
      6 O           6.8671   -2.2694    0.0000 O.3     1  UNL1       -0.3841
      7 O           5.1350   -3.2694    0.0000 O.3     1  UNL1       -0.3864
      8 O           3.4030   -2.2694    0.0000 O.3     1  UNL1       -0.3865
      9 O           8.5613    1.0907    0.0000 O.3     1  UNL1       -0.3896
     10 O           4.3991    2.9688    0.0000 O.3     1  UNL1       -0.3924
     11 O           2.5369   -0.7694    0.0000 O.3     1  UNL1       -0.3924
     12 C           6.8671    0.7306    0.0000 C.3     1  UNL1        0.2252
     13 C           7.1761    1.6816    0.0000 C.3     1  UNL1        0.1395
     14 C           6.3671    2.2694    0.0000 C.3     1  UNL1        0.1145
     15 C           5.5580    1.6816    0.0000 C.3     1  UNL1        0.1134
     16 C           6.0010   -0.7694    0.0000 C.3     1  UNL1        0.1912
     17 C           6.0010   -1.7694    0.0000 C.3     1  UNL1        0.1342
     18 C           5.1350   -2.2694    0.0000 C.3     1  UNL1        0.1141
     19 C           4.2690   -1.7694    0.0000 C.3     1  UNL1        0.1119
     20 C           4.2690   -0.7694    0.0000 C.3     1  UNL1        0.1130
     21 C           7.8181    0.4216    0.0000 C.3     1  UNL1        0.1009
     22 C           4.6070    1.9906    0.0000 C.3     1  UNL1        0.0730
     23 C           3.4030   -0.2694    0.0000 C.3     1  UNL1        0.0730
     24 H           7.6145    1.2432    0.0000 H       1  UNL1        0.0675
     25 H           6.9195    2.5509    0.0000 H       1  UNL1        0.0648
     26 H           5.1196    1.2432    0.0000 H       1  UNL1        0.0647
     27 H           6.0010   -0.1494    0.0000 H       1  UNL1        0.0939
     28 H           6.0010   -2.3894    0.0000 H       1  UNL1        0.0671
     29 H           4.5981   -2.5794    0.0000 H       1  UNL1        0.0648
     30 H           4.2690   -2.3894    0.0000 H       1  UNL1        0.0647
     31 H           4.2690   -0.1494    0.0000 H       1  UNL1        0.0647
     32 H           7.5270   -0.1259    0.0000 H       1  UNL1        0.0612
     33 H           8.3067    0.0399    0.0000 H       1  UNL1        0.0612
     34 H           3.9874    1.9690    0.0000 H       1  UNL1        0.0584
     35 H           4.5207    1.3767    0.0000 H       1  UNL1        0.0584
     36 H           3.8015    0.2055    0.0000 H       1  UNL1        0.0584
     37 H           3.0044    0.2055    0.0000 H       1  UNL1        0.0584
     38 H           8.2560    2.5971    0.0000 H       1  UNL1        0.2101
     39 H           6.9040    3.5794    0.0000 H       1  UNL1        0.2100
     40 H           6.8671   -2.8894    0.0000 H       1  UNL1        0.2101
     41 H           4.5981   -3.5794    0.0000 H       1  UNL1        0.2100
     42 H           3.4030   -2.8894    0.0000 H       1  UNL1        0.2100
     43 H           9.1509    0.8991    0.0000 H       1  UNL1        0.2096
     44 H           3.8094    3.1604    0.0000 H       1  UNL1        0.2095
     45 H           2.0000   -0.4594    0.0000 H       1  UNL1        0.2095
@<TRIPOS>BOND
     1     1    12    1
     2     1    15    1
     3    12     2    1
     4    16     2    1
     5     3    16    1
     6     3    20    1
     7    13     4    1
     8     4    38    1
     9    14     5    1
    10     5    39    1
    11    17     6    1
    12     6    40    1
    13    18     7    1
    14     7    41    1
    15    19     8    1
    16     8    42    1
    17     9    21    1
    18     9    43    1
    19    10    22    1
    20    10    44    1
    21    11    23    1
    22    11    45    1
    23    12    13    1
    24    12    21    1
    25    13    14    1
    26    13    24    1
    27    14    15    1
    28    14    25    1
    29    15    22    1
    30    15    26    1
    31    16    17    1
    32    16    27    1
    33    17    18    1
    34    17    28    1
    35    18    19    1
    36    18    29    1
    37    19    20    1
    38    19    30    1
    39    20    23    1
    40    20    31    1
    41    21    32    1
    42    21    33    1
    43    22    34    1
    44    22    35    1
    45    23    36    1
    46    23    37    1
