@<TRIPOS>MOLECULE
IMPHY009449
 36 38 0 0 0
SMALL
GASTEIGER

@<TRIPOS>ATOM
      1 O           7.2785    1.7623    0.0000 O.3     1  UNL1       -0.4943
      2 O           5.5301    1.7277    0.0000 O.2     1  UNL1       -0.2864
      3 O           5.5301   -2.2723    0.0000 O.2     1  UNL1       -0.2866
      4 O           3.7817    1.7623    0.0000 O.3     1  UNL1       -0.5060
      5 O           9.0602   -1.2964    0.0000 O.3     1  UNL1       -0.4950
      6 C           6.3961    0.2277    0.0000 C.ar    1  UNL1        0.0750
      7 C           4.6641   -0.7723    0.0000 C.ar    1  UNL1        0.0368
      8 C           4.6641    0.2277    0.0000 C.ar    1  UNL1        0.0745
      9 C           6.3961   -0.7723    0.0000 C.ar    1  UNL1        0.0401
     10 C           5.5301    0.7277    0.0000 C.2     1  UNL1        0.2015
     11 C           5.5301   -1.2723    0.0000 C.2     1  UNL1        0.1949
     12 C           7.2901    0.7624    0.0000 C.ar    1  UNL1        0.1350
     13 C           3.7702   -1.3070    0.0000 C.ar    1  UNL1       -0.0471
     14 C           3.7702    0.7624    0.0000 C.ar    1  UNL1        0.1286
     15 C           7.2901   -1.3070    0.0000 C.ar    1  UNL1       -0.0082
     16 C           2.8641   -0.7931    0.0000 C.ar    1  UNL1       -0.0463
     17 C           2.8641    0.2485    0.0000 C.ar    1  UNL1       -0.0165
     18 C           8.1962   -0.7931    0.0000 C.ar    1  UNL1        0.1243
     19 C           8.1962    0.2485    0.0000 C.ar    1  UNL1        0.0225
     20 C           2.0000   -1.2964    0.0000 C.3     1  UNL1       -0.0396
     21 C           8.1387    2.2723    0.0000 C.3     1  UNL1        0.0788
     22 C           9.9282   -0.7998    0.0000 C.3     1  UNL1        0.0788
     23 H           3.7773   -1.9269    0.0000 H       1  UNL1        0.0627
     24 H           7.2829   -1.9269    0.0000 H       1  UNL1        0.0661
     25 H           2.3284    0.5606    0.0000 H       1  UNL1        0.0657
     26 H           8.7319    0.5606    0.0000 H       1  UNL1        0.0691
     27 H           1.6879   -0.7607    0.0000 H       1  UNL1        0.0278
     28 H           1.4643   -1.6085    0.0000 H       1  UNL1        0.0278
     29 H           2.3121   -1.8322    0.0000 H       1  UNL1        0.0278
     30 H           3.2484    2.0785    0.0000 H       1  UNL1        0.2922
     31 H           8.4549    1.7390    0.0000 H       1  UNL1        0.0660
     32 H           8.6720    2.5885    0.0000 H       1  UNL1        0.0660
     33 H           7.8225    2.8056    0.0000 H       1  UNL1        0.0660
     34 H          10.2361   -1.3379    0.0000 H       1  UNL1        0.0660
     35 H          10.4663   -0.4919    0.0000 H       1  UNL1        0.0660
     36 H           9.6203   -0.2617    0.0000 H       1  UNL1        0.0660
@<TRIPOS>BOND
     1     1    12    1
     2     1    21    1
     3     2    10    2
     4     3    11    2
     5     4    14    1
     6     4    30    1
     7     5    18    1
     8     5    22    1
     9     6     9   ar
    10     6    10    1
    11     6    12   ar
    12     7     8   ar
    13     7    11    1
    14     7    13   ar
    15     8    10    1
    16     8    14   ar
    17     9    11    1
    18     9    15   ar
    19    12    19   ar
    20    13    16   ar
    21    13    23    1
    22    14    17   ar
    23    15    18   ar
    24    15    24    1
    25    16    17   ar
    26    16    20    1
    27    17    25    1
    28    18    19   ar
    29    19    26    1
    30    20    27    1
    31    20    28    1
    32    20    29    1
    33    21    31    1
    34    21    32    1
    35    21    33    1
    36    22    34    1
    37    22    35    1
    38    22    36    1
