@<TRIPOS>MOLECULE
IMPHY005883
 74 73 0 0 0
SMALL
GASTEIGER

@<TRIPOS>ATOM
      1 O          19.3205    0.4400    0.0000 O.3     1  UNL1       -0.3910
      2 C           6.3301   -0.0600    0.0000 C.3     1  UNL1       -0.0439
      3 C           7.1962    0.4400    0.0000 C.3     1  UNL1       -0.0505
      4 C           9.7942   -0.0600    0.0000 C.3     1  UNL1       -0.0439
      5 C           8.0622   -0.0600    0.0000 C.3     1  UNL1       -0.0526
      6 C           8.9282    0.4400    0.0000 C.3     1  UNL1       -0.0505
      7 C           5.4641    0.4400    0.0000 C.3     1  UNL1       -0.0505
      8 C          10.6603    0.4400    0.0000 C.3     1  UNL1       -0.0502
      9 C           4.5981   -0.0600    0.0000 C.3     1  UNL1       -0.0526
     10 C           3.7320    0.4400    0.0000 C.3     1  UNL1       -0.0507
     11 C           6.3301   -1.0600    0.0000 C.3     1  UNL1       -0.0624
     12 C          11.5263   -0.0600    0.0000 C.3     1  UNL1       -0.0491
     13 C           9.7942   -1.0600    0.0000 C.3     1  UNL1       -0.0624
     14 C           2.8660   -0.0600    0.0000 C.3     1  UNL1       -0.0467
     15 C          12.3923    0.4400    0.0000 C.3     1  UNL1       -0.0320
     16 C           2.0000    0.4400    0.0000 C.3     1  UNL1       -0.0627
     17 C           2.8660   -1.0600    0.0000 C.3     1  UNL1       -0.0627
     18 C          13.2583   -0.0600    0.0000 C.2     1  UNL1       -0.0765
     19 C          14.1244    0.4400    0.0000 C.2     1  UNL1       -0.0847
     20 C          13.2583   -1.0600    0.0000 C.3     1  UNL1       -0.0438
     21 C          14.9904   -0.0600    0.0000 C.3     1  UNL1       -0.0308
     22 C          15.8564    0.4400    0.0000 C.3     1  UNL1       -0.0285
     23 C          16.7224   -0.0600    0.0000 C.2     1  UNL1       -0.0741
     24 C          16.7224   -1.0600    0.0000 C.3     1  UNL1       -0.0437
     25 C          17.5885    0.4400    0.0000 C.2     1  UNL1       -0.0600
     26 C          18.4545   -0.0600    0.0000 C.3     1  UNL1        0.0626
     27 H           6.8671   -0.3700    0.0000 H       1  UNL1        0.0298
     28 H           7.5947    0.9149    0.0000 H       1  UNL1        0.0268
     29 H           6.7976    0.9149    0.0000 H       1  UNL1        0.0268
     30 H           9.2573   -0.3700    0.0000 H       1  UNL1        0.0298
     31 H           7.6636   -0.5349    0.0000 H       1  UNL1        0.0265
     32 H           8.4607   -0.5349    0.0000 H       1  UNL1        0.0265
     33 H           9.3267    0.9149    0.0000 H       1  UNL1        0.0268
     34 H           8.5297    0.9149    0.0000 H       1  UNL1        0.0268
     35 H           5.8626    0.9149    0.0000 H       1  UNL1        0.0268
     36 H           5.0656    0.9149    0.0000 H       1  UNL1        0.0268
     37 H          11.0588    0.9149    0.0000 H       1  UNL1        0.0268
     38 H          10.2617    0.9149    0.0000 H       1  UNL1        0.0268
     39 H           4.1996   -0.5349    0.0000 H       1  UNL1        0.0265
     40 H           4.9966   -0.5349    0.0000 H       1  UNL1        0.0265
     41 H           4.1306    0.9149    0.0000 H       1  UNL1        0.0268
     42 H           3.3335    0.9149    0.0000 H       1  UNL1        0.0268
     43 H           5.7101   -1.0600    0.0000 H       1  UNL1        0.0232
     44 H           6.3301   -1.6800    0.0000 H       1  UNL1        0.0232
     45 H           6.9501   -1.0600    0.0000 H       1  UNL1        0.0232
     46 H          11.1278   -0.5349    0.0000 H       1  UNL1        0.0268
     47 H          11.9248   -0.5349    0.0000 H       1  UNL1        0.0268
     48 H           9.1742   -1.0600    0.0000 H       1  UNL1        0.0232
     49 H           9.7942   -1.6800    0.0000 H       1  UNL1        0.0232
     50 H          10.4142   -1.0600    0.0000 H       1  UNL1        0.0232
     51 H           2.8660    0.5600    0.0000 H       1  UNL1        0.0295
     52 H          12.7908    0.9149    0.0000 H       1  UNL1        0.0310
     53 H          11.9938    0.9149    0.0000 H       1  UNL1        0.0310
     54 H           2.2460   -1.0600    0.0000 H       1  UNL1        0.0232
     55 H           2.3100    0.9769    0.0000 H       1  UNL1        0.0232
     56 H           1.4631    0.7500    0.0000 H       1  UNL1        0.0232
     57 H           1.6900   -0.0969    0.0000 H       1  UNL1        0.0232
     58 H           2.8660   -1.6800    0.0000 H       1  UNL1        0.0232
     59 H           3.4860   -1.0600    0.0000 H       1  UNL1        0.0232
     60 H          14.1244    1.0600    0.0000 H       1  UNL1        0.0572
     61 H          12.6383   -1.0600    0.0000 H       1  UNL1        0.0274
     62 H          13.2583   -1.6800    0.0000 H       1  UNL1        0.0274
     63 H          13.8783   -1.0600    0.0000 H       1  UNL1        0.0274
     64 H          14.5919   -0.5349    0.0000 H       1  UNL1        0.0310
     65 H          15.3889   -0.5349    0.0000 H       1  UNL1        0.0310
     66 H          16.2549    0.9149    0.0000 H       1  UNL1        0.0313
     67 H          15.4579    0.9149    0.0000 H       1  UNL1        0.0313
     68 H          16.1024   -1.0600    0.0000 H       1  UNL1        0.0274
     69 H          16.7224   -1.6800    0.0000 H       1  UNL1        0.0274
     70 H          17.3424   -1.0600    0.0000 H       1  UNL1        0.0274
     71 H          17.5885    1.0600    0.0000 H       1  UNL1        0.0594
     72 H          18.0560   -0.5349    0.0000 H       1  UNL1        0.0601
     73 H          18.8530   -0.5349    0.0000 H       1  UNL1        0.0601
     74 H          19.8574    0.1300    0.0000 H       1  UNL1        0.2098
@<TRIPOS>BOND
     1     1    26    1
     2     1    74    1
     3     2     3    1
     4     2     7    1
     5     2    11    1
     6     2    27    1
     7     3     5    1
     8     3    28    1
     9     3    29    1
    10     4     6    1
    11     4     8    1
    12     4    13    1
    13     4    30    1
    14     5     6    1
    15     5    31    1
    16     5    32    1
    17     6    33    1
    18     6    34    1
    19     7     9    1
    20     7    35    1
    21     7    36    1
    22     8    12    1
    23     8    37    1
    24     8    38    1
    25     9    10    1
    26     9    39    1
    27     9    40    1
    28    10    14    1
    29    10    41    1
    30    10    42    1
    31    11    43    1
    32    11    44    1
    33    11    45    1
    34    12    15    1
    35    12    46    1
    36    12    47    1
    37    13    48    1
    38    13    49    1
    39    13    50    1
    40    14    16    1
    41    14    17    1
    42    14    51    1
    43    15    18    1
    44    15    52    1
    45    15    53    1
    46    16    55    1
    47    16    56    1
    48    16    57    1
    49    17    54    1
    50    17    58    1
    51    17    59    1
    52    18    19    2
    53    18    20    1
    54    19    21    1
    55    19    60    1
    56    20    61    1
    57    20    62    1
    58    20    63    1
    59    21    22    1
    60    21    64    1
    61    21    65    1
    62    22    23    1
    63    22    66    1
    64    22    67    1
    65    23    24    1
    66    23    25    2
    67    24    68    1
    68    24    69    1
    69    24    70    1
    70    25    26    1
    71    25    71    1
    72    26    72    1
    73    26    73    1
