@<TRIPOS>MOLECULE
IMPHY005260
 36 39 0 0 0
SMALL
GASTEIGER

@<TRIPOS>ATOM
      1 O           3.7782    1.5892    0.0000 O.3     1  UNL1       -0.4908
      2 O           5.5442    2.6270    0.0000 O.3     1  UNL1       -0.5033
      3 O           8.1630    0.0085    0.0000 O.2     1  UNL1       -0.2817
      4 O           8.1118   -1.9719    0.0000 O.2     1  UNL1       -0.2661
      5 N           6.3903   -1.9391    0.0000 N.am    1  UNL1       -0.2672
      6 C           5.5321   -0.4422    0.0000 C.ar    1  UNL1        0.0188
      7 C           4.6660    0.0578    0.0000 C.ar    1  UNL1        0.0376
      8 C           5.5321   -1.4422    0.0000 C.ar    1  UNL1        0.0454
      9 C           3.8000   -0.4422    0.0000 C.ar    1  UNL1       -0.0064
     10 C           6.4421    0.0646    0.0000 C.ar    1  UNL1        0.0401
     11 C           3.8000   -1.4422    0.0000 C.ar    1  UNL1       -0.0154
     12 C           4.6660   -1.9422    0.0000 C.ar    1  UNL1       -0.0319
     13 C           4.6500    1.0993    0.0000 C.ar    1  UNL1        0.1696
     14 C           7.2814   -0.4636    0.0000 C.2     1  UNL1        0.2485
     15 C           6.4501    1.1062    0.0000 C.ar    1  UNL1       -0.0049
     16 C           7.2558   -1.4550    0.0000 C.2     1  UNL1        0.2910
     17 C           5.5480    1.6271    0.0000 C.ar    1  UNL1        0.1598
     18 C           2.9061    0.0925    0.0000 C.ar    1  UNL1       -0.0533
     19 C           2.9061   -1.9769    0.0000 C.ar    1  UNL1       -0.0540
     20 C           6.3829   -2.9391    0.0000 C.3     1  UNL1        0.0087
     21 C           2.0000   -0.4214    0.0000 C.ar    1  UNL1       -0.0611
     22 C           2.0000   -1.4630    0.0000 C.ar    1  UNL1       -0.0612
     23 C           3.7667    2.5892    0.0000 C.3     1  UNL1        0.0790
     24 H           4.6660   -2.5622    0.0000 H       1  UNL1        0.0642
     25 H           6.9882    1.4142    0.0000 H       1  UNL1        0.0662
     26 H           2.9132    0.7124    0.0000 H       1  UNL1        0.0624
     27 H           2.9132   -2.5968    0.0000 H       1  UNL1        0.0624
     28 H           5.7629   -2.9345    0.0000 H       1  UNL1        0.0433
     29 H           6.3783   -3.5591    0.0000 H       1  UNL1        0.0433
     30 H           7.0029   -2.9437    0.0000 H       1  UNL1        0.0433
     31 H           1.4643   -0.1093    0.0000 H       1  UNL1        0.0618
     32 H           1.4643   -1.7751    0.0000 H       1  UNL1        0.0618
     33 H           6.0799    2.9391    0.0000 H       1  UNL1        0.2923
     34 H           4.3866    2.5964    0.0000 H       1  UNL1        0.0660
     35 H           3.7595    3.2091    0.0000 H       1  UNL1        0.0660
     36 H           3.1467    2.5820    0.0000 H       1  UNL1        0.0660
@<TRIPOS>BOND
     1     1    13    1
     2     1    23    1
     3     2    17    1
     4     2    33    1
     5     3    14    2
     6     4    16    2
     7     5     8    1
     8     5    16   am
     9     5    20    1
    10     6     7   ar
    11     6     8   ar
    12     6    10   ar
    13     7     9   ar
    14     7    13   ar
    15     8    12   ar
    16     9    11   ar
    17     9    18   ar
    18    10    14    1
    19    10    15   ar
    20    11    12   ar
    21    11    19   ar
    22    12    24    1
    23    13    17   ar
    24    14    16    1
    25    15    17   ar
    26    15    25    1
    27    18    21   ar
    28    18    26    1
    29    19    22   ar
    30    19    27    1
    31    20    28    1
    32    20    29    1
    33    20    30    1
    34    21    22   ar
    35    21    31    1
    36    22    32    1
    37    23    34    1
    38    23    35    1
    39    23    36    1
