@<TRIPOS>MOLECULE
IMPHY013200
 32 34 0 0 0
SMALL
GASTEIGER

@<TRIPOS>ATOM
      1 O           5.5301   -0.7621    0.0000 O.2     1  UNL1       -0.4545
      2 O           2.0000    1.2621    0.0000 O.3     1  UNL1       -0.4914
      3 O           2.0000   -0.7862    0.0000 O.3     1  UNL1       -0.5032
      4 O           5.5301    2.2379    0.0000 O.2     1  UNL1       -0.2870
      5 C           4.6641    0.7379    0.0000 C.ar    1  UNL1        0.0677
      6 C           4.6641   -0.2621    0.0000 C.ar    1  UNL1        0.1429
      7 C           6.3961   -0.2621    0.0000 C.ar    1  UNL1        0.1392
      8 C           5.5301    1.2379    0.0000 C.ar    1  UNL1        0.1932
      9 C           3.7702    1.2726    0.0000 C.ar    1  UNL1       -0.0020
     10 C           7.2622   -0.7621    0.0000 C.ar    1  UNL1        0.0174
     11 C           6.3961    0.7379    0.0000 C.ar    1  UNL1        0.0287
     12 C           3.7702   -0.7967    0.0000 C.ar    1  UNL1        0.0265
     13 C           2.8641    0.7587    0.0000 C.ar    1  UNL1        0.1622
     14 C           2.8641   -0.2829    0.0000 C.ar    1  UNL1        0.1620
     15 C           7.2622   -1.7621    0.0000 C.ar    1  UNL1       -0.0511
     16 C           8.1282   -0.2621    0.0000 C.ar    1  UNL1       -0.0511
     17 C           8.1282   -2.2621    0.0000 C.ar    1  UNL1       -0.0611
     18 C           8.9942   -0.7621    0.0000 C.ar    1  UNL1       -0.0611
     19 C           8.9942   -1.7621    0.0000 C.ar    1  UNL1       -0.0617
     20 C           2.0038    2.2621    0.0000 C.3     1  UNL1        0.0790
     21 H           3.7773    1.8926    0.0000 H       1  UNL1        0.0663
     22 H           6.9331    1.0479    0.0000 H       1  UNL1        0.0693
     23 H           3.7773   -1.4167    0.0000 H       1  UNL1        0.0692
     24 H           6.7252   -2.0721    0.0000 H       1  UNL1        0.0625
     25 H           8.1282    0.3579    0.0000 H       1  UNL1        0.0625
     26 H           8.1282   -2.8821    0.0000 H       1  UNL1        0.0618
     27 H           9.5312   -0.4521    0.0000 H       1  UNL1        0.0618
     28 H           9.5312   -2.0721    0.0000 H       1  UNL1        0.0618
     29 H           2.0024   -1.4062    0.0000 H       1  UNL1        0.2923
     30 H           2.6238    2.2597    0.0000 H       1  UNL1        0.0660
     31 H           2.0062    2.8821    0.0000 H       1  UNL1        0.0660
     32 H           1.3839    2.2645    0.0000 H       1  UNL1        0.0660
@<TRIPOS>BOND
     1     1     6   ar
     2     1     7   ar
     3     2    13    1
     4     2    20    1
     5     3    14    1
     6     3    29    1
     7     4     8    2
     8     5     6   ar
     9     5     8   ar
    10     5     9   ar
    11     6    12   ar
    12     7    10    1
    13     7    11   ar
    14     8    11   ar
    15     9    13   ar
    16     9    21    1
    17    10    15   ar
    18    10    16   ar
    19    11    22    1
    20    12    14   ar
    21    12    23    1
    22    13    14   ar
    23    15    17   ar
    24    15    24    1
    25    16    18   ar
    26    16    25    1
    27    17    19   ar
    28    17    26    1
    29    18    19   ar
    30    18    27    1
    31    19    28    1
    32    20    30    1
    33    20    31    1
    34    20    32    1
