@<TRIPOS>MOLECULE
IMPHY009339
 47 51 0 0 0
SMALL
GASTEIGER

@<TRIPOS>ATOM
      1 O           2.2978   -1.0385    0.0000 O.co2   1  UNL1       -0.7747
      2 O           2.1153    2.1044    0.0000 O.3     1  UNL1       -0.4523
      3 O           2.9423    3.5627    0.0000 O.3     1  UNL1       -0.4526
      4 O           7.6940   -2.5627    0.0000 O.3     1  UNL1       -0.4914
      5 O           7.6940   -0.5144    0.0000 O.3     1  UNL1       -0.5033
      6 N           3.2978   -1.0385    0.0000 N.3     1  UNL1        0.2233
      7 C           4.1639   -0.5385    0.0000 C.3     1  UNL1        0.0233
      8 C           3.3548    0.0493    0.0000 C.3     1  UNL1        0.0268
      9 C           4.9729    0.0493    0.0000 C.3     1  UNL1        0.0233
     10 C           5.0299   -1.0385    0.0000 C.ar    1  UNL1        0.0108
     11 C           3.2978   -2.0385    0.0000 C.3     1  UNL1       -0.0280
     12 C           3.6639    1.0003    0.0000 C.ar    1  UNL1        0.0074
     13 C           4.6639    1.0003    0.0000 C.ar    1  UNL1       -0.0343
     14 C           4.1639   -2.5385    0.0000 C.3     1  UNL1        0.0132
     15 C           5.0299   -2.0385    0.0000 C.ar    1  UNL1       -0.0299
     16 C           2.5318   -0.3957    0.0000 C.3     1  UNL1       -0.0430
     17 C           5.9238   -0.5039    0.0000 C.ar    1  UNL1       -0.0075
     18 C           3.1292    1.8943    0.0000 C.ar    1  UNL1        0.1699
     19 C           5.1985    1.8943    0.0000 C.ar    1  UNL1       -0.0544
     20 C           5.9238   -2.5732    0.0000 C.ar    1  UNL1       -0.0125
     21 C           3.6430    2.8003    0.0000 C.ar    1  UNL1        0.1665
     22 C           6.8299   -1.0177    0.0000 C.ar    1  UNL1        0.1589
     23 C           4.6847    2.8003    0.0000 C.ar    1  UNL1       -0.0159
     24 C           6.8299   -2.0593    0.0000 C.ar    1  UNL1        0.1615
     25 C           2.0000    3.1334    0.0000 C.3     1  UNL1        0.2332
     26 C           7.6901   -3.5627    0.0000 C.3     1  UNL1        0.0790
     27 H           2.7884    0.3014    0.0000 H       1  UNL1        0.0376
     28 H           3.0448   -0.4877    0.0000 H       1  UNL1        0.0376
     29 H           5.2829   -0.4877    0.0000 H       1  UNL1        0.0375
     30 H           5.5393    0.3014    0.0000 H       1  UNL1        0.0375
     31 H           2.6873   -1.9308    0.0000 H       1  UNL1        0.0817
     32 H           3.0858   -2.6211    0.0000 H       1  UNL1        0.0817
     33 H           3.7653   -3.0135    0.0000 H       1  UNL1        0.0365
     34 H           4.5624   -3.0135    0.0000 H       1  UNL1        0.0365
     35 H           2.9303    0.0792    0.0000 H       1  UNL1        0.0777
     36 H           2.0568    0.0028    0.0000 H       1  UNL1        0.0777
     37 H           2.1333   -0.8707    0.0000 H       1  UNL1        0.0777
     38 H           5.9167    0.1161    0.0000 H       1  UNL1        0.0660
     39 H           5.8185    1.8871    0.0000 H       1  UNL1        0.0622
     40 H           5.9167   -3.1931    0.0000 H       1  UNL1        0.0658
     41 H           4.9967    3.3361    0.0000 H       1  UNL1        0.0655
     42 H           1.8037    3.7215    0.0000 H       1  UNL1        0.1166
     43 H           1.3945    3.0000    0.0000 H       1  UNL1        0.1166
     44 H           8.2321   -0.8223    0.0000 H       1  UNL1        0.2923
     45 H           7.0701   -3.5603    0.0000 H       1  UNL1        0.0660
     46 H           7.6878   -4.1826    0.0000 H       1  UNL1        0.0660
     47 H           8.3101   -3.5650    0.0000 H       1  UNL1        0.0660
@<TRIPOS>UNITY_ATOM_ATTR
1 1
charge -1
6 1
charge 1
@<TRIPOS>BOND
     1     1     6    1
     2     2    18    1
     3     2    25    1
     4     3    21    1
     5     3    25    1
     6     4    24    1
     7     4    26    1
     8     5    22    1
     9     5    44    1
    10     6     7    1
    11     6    11    1
    12     6    16    1
    13     7     8    1
    14     7     9    1
    15     7    10    1
    16     8    12    1
    17     8    27    1
    18     8    28    1
    19     9    13    1
    20     9    29    1
    21     9    30    1
    22    10    15   ar
    23    10    17   ar
    24    11    14    1
    25    11    31    1
    26    11    32    1
    27    12    13   ar
    28    12    18   ar
    29    13    19   ar
    30    14    15    1
    31    14    33    1
    32    14    34    1
    33    15    20   ar
    34    16    35    1
    35    16    36    1
    36    16    37    1
    37    17    22   ar
    38    17    38    1
    39    18    21   ar
    40    19    23   ar
    41    19    39    1
    42    20    24   ar
    43    20    40    1
    44    21    23   ar
    45    22    24   ar
    46    23    41    1
    47    25    42    1
    48    25    43    1
    49    26    45    1
    50    26    46    1
    51    26    47    1
