@<TRIPOS>MOLECULE
IMPHY001483
 39 43 0 0 0
SMALL
GASTEIGER

@<TRIPOS>ATOM
      1 O           6.9742    1.5420    0.0000 O.3     1  UNL1       -0.4520
      2 O           6.9742    3.1514    0.0000 O.3     1  UNL1       -0.4526
      3 O           5.2151   -2.8500    0.0000 O.3     1  UNL1       -0.4951
      4 N           2.5466    1.8681    0.0000 N.3     1  UNL1       -0.3087
      5 C           3.3859    1.3398    0.0000 C.3     1  UNL1        0.0378
      6 C           4.2959    1.8467    0.0000 C.ar    1  UNL1       -0.0155
      7 C           3.3779    0.2982    0.0000 C.3     1  UNL1       -0.0074
      8 C           5.1619    1.3467    0.0000 C.ar    1  UNL1        0.0328
      9 C           4.2959    2.8467    0.0000 C.ar    1  UNL1       -0.0372
     10 C           3.4377    3.3436    0.0000 C.3     1  UNL1       -0.0146
     11 C           4.2799   -0.2226    0.0000 C.ar    1  UNL1       -0.0343
     12 C           2.5722    2.8594    0.0000 C.3     1  UNL1        0.0004
     13 C           5.1780    0.3052    0.0000 C.ar    1  UNL1       -0.0105
     14 C           6.0279    1.8467    0.0000 C.ar    1  UNL1        0.1742
     15 C           5.1619    3.3467    0.0000 C.ar    1  UNL1       -0.0126
     16 C           6.0279    2.8467    0.0000 C.ar    1  UNL1        0.1671
     17 C           4.2716   -1.3075    0.0000 C.ar    1  UNL1       -0.0161
     18 C           6.1299   -0.2154    0.0000 C.ar    1  UNL1       -0.0502
     19 C           5.2112   -1.8500    0.0000 C.ar    1  UNL1        0.1204
     20 C           7.5578    2.3467    0.0000 C.3     1  UNL1        0.2333
     21 C           6.1466   -1.3003    0.0000 C.ar    1  UNL1       -0.0194
     22 C           6.0830   -3.3467    0.0000 C.3     1  UNL1        0.0788
     23 H           2.6402    0.9318    0.0000 H       1  UNL1        0.0513
     24 H           2.7678    0.4090    0.0000 H       1  UNL1        0.0332
     25 H           3.1643   -0.2838    0.0000 H       1  UNL1        0.0332
     26 H           3.8387    3.8164    0.0000 H       1  UNL1        0.0326
     27 H           3.0436    3.8223    0.0000 H       1  UNL1        0.0326
     28 H           2.0000    1.5754    0.0000 H       1  UNL1        0.1225
     29 H           2.3704    3.4457    0.0000 H       1  UNL1        0.0427
     30 H           1.9594    2.7651    0.0000 H       1  UNL1        0.0427
     31 H           5.1619    3.9667    0.0000 H       1  UNL1        0.0658
     32 H           3.7334   -1.6155    0.0000 H       1  UNL1        0.0657
     33 H           6.6608    0.1048    0.0000 H       1  UNL1        0.0625
     34 H           8.0186    1.9320    0.0000 H       1  UNL1        0.1166
     35 H           8.0186    2.7614    0.0000 H       1  UNL1        0.1166
     36 H           6.6871   -1.6041    0.0000 H       1  UNL1        0.0654
     37 H           5.7751   -3.8848    0.0000 H       1  UNL1        0.0660
     38 H           6.6211   -3.6546    0.0000 H       1  UNL1        0.0660
     39 H           6.3909   -2.8086    0.0000 H       1  UNL1        0.0660
@<TRIPOS>BOND
     1     1    14    1
     2     1    20    1
     3     2    16    1
     4     2    20    1
     5     3    19    1
     6     3    22    1
     7     4     5    1
     8     4    12    1
     9     4    28    1
    10     5     6    1
    11     5     7    1
    12     5    23    1
    13     6     8   ar
    14     6     9   ar
    15     7    11    1
    16     7    24    1
    17     7    25    1
    18     8    13    1
    19     8    14   ar
    20     9    10    1
    21     9    15   ar
    22    10    12    1
    23    10    26    1
    24    10    27    1
    25    11    13   ar
    26    11    17   ar
    27    12    29    1
    28    12    30    1
    29    13    18   ar
    30    14    16   ar
    31    15    16   ar
    32    15    31    1
    33    17    19   ar
    34    17    32    1
    35    18    21   ar
    36    18    33    1
    37    19    21   ar
    38    20    34    1
    39    20    35    1
    40    21    36    1
    41    22    37    1
    42    22    38    1
    43    22    39    1
