@<TRIPOS>MOLECULE
IMPHY006925
 54 53 0 0 0
SMALL
GASTEIGER

@<TRIPOS>ATOM
      1 C           8.9282   -0.2500    0.0000 C.3     1  UNL1       -0.0531
      2 C           8.0622    0.2500    0.0000 C.3     1  UNL1       -0.0531
      3 C           9.7942    0.2500    0.0000 C.3     1  UNL1       -0.0531
      4 C           7.1962   -0.2500    0.0000 C.3     1  UNL1       -0.0531
      5 C          10.6603   -0.2500    0.0000 C.3     1  UNL1       -0.0531
      6 C           6.3301    0.2500    0.0000 C.3     1  UNL1       -0.0531
      7 C          11.5263    0.2500    0.0000 C.3     1  UNL1       -0.0531
      8 C           5.4641   -0.2500    0.0000 C.3     1  UNL1       -0.0531
      9 C          12.3923   -0.2500    0.0000 C.3     1  UNL1       -0.0530
     10 C           4.5981    0.2500    0.0000 C.3     1  UNL1       -0.0531
     11 C          13.2583    0.2500    0.0000 C.3     1  UNL1       -0.0528
     12 C           3.7320   -0.2500    0.0000 C.3     1  UNL1       -0.0533
     13 C          14.1244   -0.2500    0.0000 C.3     1  UNL1       -0.0496
     14 C           2.8660    0.2500    0.0000 C.3     1  UNL1       -0.0559
     15 C          14.9904    0.2500    0.0000 C.3     1  UNL1       -0.0350
     16 C           2.0000   -0.2500    0.0000 C.3     1  UNL1       -0.0653
     17 C          15.8564   -0.2500    0.0000 C.2     1  UNL1       -0.0911
     18 C          16.7224    0.2500    0.0000 C.2     1  UNL1       -0.1026
     19 H           8.5297   -0.7249    0.0000 H       1  UNL1        0.0265
     20 H           9.3267   -0.7249    0.0000 H       1  UNL1        0.0265
     21 H           8.4607    0.7249    0.0000 H       1  UNL1        0.0265
     22 H           7.6636    0.7249    0.0000 H       1  UNL1        0.0265
     23 H          10.1928    0.7249    0.0000 H       1  UNL1        0.0265
     24 H           9.3957    0.7249    0.0000 H       1  UNL1        0.0265
     25 H           6.7976   -0.7249    0.0000 H       1  UNL1        0.0265
     26 H           7.5947   -0.7249    0.0000 H       1  UNL1        0.0265
     27 H          10.2617   -0.7249    0.0000 H       1  UNL1        0.0265
     28 H          11.0588   -0.7249    0.0000 H       1  UNL1        0.0265
     29 H           6.7287    0.7249    0.0000 H       1  UNL1        0.0265
     30 H           5.9316    0.7249    0.0000 H       1  UNL1        0.0265
     31 H          11.9248    0.7249    0.0000 H       1  UNL1        0.0265
     32 H          11.1278    0.7249    0.0000 H       1  UNL1        0.0265
     33 H           5.0656   -0.7249    0.0000 H       1  UNL1        0.0265
     34 H           5.8626   -0.7249    0.0000 H       1  UNL1        0.0265
     35 H          11.9938   -0.7249    0.0000 H       1  UNL1        0.0265
     36 H          12.7908   -0.7249    0.0000 H       1  UNL1        0.0265
     37 H           4.9966    0.7249    0.0000 H       1  UNL1        0.0265
     38 H           4.1996    0.7249    0.0000 H       1  UNL1        0.0265
     39 H          13.6569    0.7249    0.0000 H       1  UNL1        0.0265
     40 H          12.8598    0.7249    0.0000 H       1  UNL1        0.0265
     41 H           3.3335   -0.7249    0.0000 H       1  UNL1        0.0265
     42 H           4.1306   -0.7249    0.0000 H       1  UNL1        0.0265
     43 H          13.7258   -0.7249    0.0000 H       1  UNL1        0.0268
     44 H          14.5229   -0.7249    0.0000 H       1  UNL1        0.0268
     45 H           3.2646    0.7249    0.0000 H       1  UNL1        0.0263
     46 H           2.4675    0.7249    0.0000 H       1  UNL1        0.0263
     47 H          15.3889    0.7249    0.0000 H       1  UNL1        0.0307
     48 H          14.5919    0.7249    0.0000 H       1  UNL1        0.0307
     49 H           1.6900    0.2869    0.0000 H       1  UNL1        0.0230
     50 H           1.4631   -0.5600    0.0000 H       1  UNL1        0.0230
     51 H           2.3100   -0.7869    0.0000 H       1  UNL1        0.0230
     52 H          15.8564   -0.8700    0.0000 H       1  UNL1        0.0566
     53 H          17.2594   -0.0600    0.0000 H       1  UNL1        0.0532
     54 H          16.7224    0.8700    0.0000 H       1  UNL1        0.0532
@<TRIPOS>BOND
     1     1     2    1
     2     1     3    1
     3     1    19    1
     4     1    20    1
     5     2     4    1
     6     2    21    1
     7     2    22    1
     8     3     5    1
     9     3    23    1
    10     3    24    1
    11     4     6    1
    12     4    25    1
    13     4    26    1
    14     5     7    1
    15     5    27    1
    16     5    28    1
    17     6     8    1
    18     6    29    1
    19     6    30    1
    20     7     9    1
    21     7    31    1
    22     7    32    1
    23     8    10    1
    24     8    33    1
    25     8    34    1
    26     9    11    1
    27     9    35    1
    28     9    36    1
    29    10    12    1
    30    10    37    1
    31    10    38    1
    32    11    13    1
    33    11    39    1
    34    11    40    1
    35    12    14    1
    36    12    41    1
    37    12    42    1
    38    13    15    1
    39    13    43    1
    40    13    44    1
    41    14    16    1
    42    14    45    1
    43    14    46    1
    44    15    17    1
    45    15    47    1
    46    15    48    1
    47    16    49    1
    48    16    50    1
    49    16    51    1
    50    17    18    2
    51    17    52    1
    52    18    53    1
    53    18    54    1
