@<TRIPOS>MOLECULE
IMPHY002493
 52 54 0 0 0
SMALL
GASTEIGER

@<TRIPOS>ATOM
      1 O           2.5381   -1.9627    0.0000 O.3     1  UNL1       -0.3912
      2 O           6.0682   -2.9386    0.0000 O.2     1  UNL1       -0.2883
      3 O           5.1804    1.5929    0.0000 O.3     1  UNL1       -0.5031
      4 O           7.8003   -1.9386    0.0000 O.2     1  UNL1       -0.2834
      5 O           8.7045   -0.4417    0.0000 O.3     1  UNL1       -0.5056
      6 O           6.9464    2.6307    0.0000 O.3     1  UNL1       -0.5030
      7 C           5.2022   -0.4386    0.0000 C.3     1  UNL1        0.0079
      8 C           5.2022   -1.4386    0.0000 C.3     1  UNL1        0.0423
      9 C           4.3083   -1.9732    0.0000 C.3     1  UNL1        0.0018
     10 C           4.3083    0.0961    0.0000 C.3     1  UNL1       -0.0404
     11 C           3.4022   -1.4594    0.0000 C.3     1  UNL1        0.0611
     12 C           3.4022   -0.4178    0.0000 C.3     1  UNL1       -0.0255
     13 C           6.0682    0.0614    0.0000 C.ar    1  UNL1        0.0187
     14 C           5.2022    0.5614    0.0000 C.3     1  UNL1       -0.0547
     15 C           6.0682   -1.9386    0.0000 C.2     1  UNL1        0.2075
     16 C           3.8183   -2.8450    0.0000 C.3     1  UNL1       -0.0568
     17 C           4.8183   -2.8334    0.0000 C.3     1  UNL1       -0.0568
     18 C           6.9343   -0.4386    0.0000 C.ar    1  UNL1        0.0742
     19 C           6.9343   -1.4386    0.0000 C.2     1  UNL1        0.2323
     20 C           6.0522    1.1029    0.0000 C.ar    1  UNL1        0.1632
     21 C           7.8443    0.0683    0.0000 C.ar    1  UNL1        0.1351
     22 C           6.9502    1.6307    0.0000 C.ar    1  UNL1        0.1656
     23 C           7.8523    1.1098    0.0000 C.ar    1  UNL1        0.0423
     24 C           8.7202    1.6065    0.0000 C.3     1  UNL1       -0.0144
     25 C           8.7241    2.6065    0.0000 C.3     1  UNL1       -0.0584
     26 C           9.5844    1.1032    0.0000 C.3     1  UNL1       -0.0584
     27 H           5.2088   -2.2886    0.0000 H       1  UNL1        0.0397
     28 H           4.7129    0.5659    0.0000 H       1  UNL1        0.0275
     29 H           3.9147    0.5751    0.0000 H       1  UNL1        0.0275
     30 H           2.8647   -1.1504    0.0000 H       1  UNL1        0.0599
     31 H           3.1932    0.1659    0.0000 H       1  UNL1        0.0290
     32 H           2.7914   -0.5239    0.0000 H       1  UNL1        0.0290
     33 H           5.8222    0.5614    0.0000 H       1  UNL1        0.0238
     34 H           5.2022    1.1814    0.0000 H       1  UNL1        0.0238
     35 H           4.5822    0.5614    0.0000 H       1  UNL1        0.0238
     36 H           3.2778   -2.5412    0.0000 H       1  UNL1        0.0236
     37 H           3.5146   -3.3855    0.0000 H       1  UNL1        0.0236
     38 H           4.2850   -3.1496    0.0000 H       1  UNL1        0.0236
     39 H           5.1344   -3.3668    0.0000 H       1  UNL1        0.0236
     40 H           5.3516   -2.5173    0.0000 H       1  UNL1        0.0236
     41 H           4.3588   -3.1488    0.0000 H       1  UNL1        0.0236
     42 H           2.0000   -1.6548    0.0000 H       1  UNL1        0.2098
     43 H           8.1845    1.9186    0.0000 H       1  UNL1        0.0346
     44 H           5.1733    2.2128    0.0000 H       1  UNL1        0.2923
     45 H           9.2450   -0.1380    0.0000 H       1  UNL1        0.2922
     46 H           6.4082    2.9386    0.0000 H       1  UNL1        0.2923
     47 H           9.2723    0.5674    0.0000 H       1  UNL1        0.0235
     48 H          10.1201    0.7911    0.0000 H       1  UNL1        0.0235
     49 H           9.8964    1.6389    0.0000 H       1  UNL1        0.0235
     50 H           9.3441    2.6041    0.0000 H       1  UNL1        0.0235
     51 H           8.7265    3.2265    0.0000 H       1  UNL1        0.0235
     52 H           8.1041    2.6089    0.0000 H       1  UNL1        0.0235
@<TRIPOS>BOND
     1    11     1    1
     2     1    42    1
     3     2    15    2
     4     3    20    1
     5     3    44    1
     6     4    19    2
     7     5    21    1
     8     5    45    1
     9     6    22    1
    10     6    46    1
    11     7     8    1
    12     7    10    1
    13     7    13    1
    14     7    14    1
    15     8     9    1
    16     8    15    1
    17     8    27    1
    18     9    11    1
    19     9    16    1
    20     9    17    1
    21    10    12    1
    22    10    28    1
    23    10    29    1
    24    11    12    1
    25    11    30    1
    26    12    31    1
    27    12    32    1
    28    13    18   ar
    29    13    20   ar
    30    14    33    1
    31    14    34    1
    32    14    35    1
    33    15    19    1
    34    16    36    1
    35    16    37    1
    36    16    41    1
    37    17    38    1
    38    17    39    1
    39    17    40    1
    40    18    19    1
    41    18    21   ar
    42    20    22   ar
    43    21    23   ar
    44    22    23   ar
    45    23    24    1
    46    24    25    1
    47    24    26    1
    48    24    43    1
    49    25    50    1
    50    25    51    1
    51    25    52    1
    52    26    47    1
    53    26    48    1
    54    26    49    1
