@<TRIPOS>MOLECULE
IMPHY009354
 20 19 0 0 0
SMALL
GASTEIGER

@<TRIPOS>ATOM
      1 O           6.3301   -0.2500    0.0000 O.3     1  UNL1       -0.4806
      2 O           5.4641    1.2500    0.0000 O.2     1  UNL1       -0.2510
      3 C           2.8660   -0.2500    0.0000 C.3     1  UNL1       -0.0462
      4 C           3.7320    0.2500    0.0000 C.3     1  UNL1       -0.0406
      5 C           4.5981   -0.2500    0.0000 C.3     1  UNL1        0.0450
      6 C           2.0000    0.2500    0.0000 C.3     1  UNL1       -0.0627
      7 C           2.8660   -1.2500    0.0000 C.3     1  UNL1       -0.0627
      8 C           5.4641    0.2500    0.0000 C.2     1  UNL1        0.3047
      9 H           2.8660    0.3700    0.0000 H       1  UNL1        0.0296
     10 H           4.1306    0.7249    0.0000 H       1  UNL1        0.0273
     11 H           3.3335    0.7249    0.0000 H       1  UNL1        0.0273
     12 H           4.1996   -0.7249    0.0000 H       1  UNL1        0.0377
     13 H           4.9966   -0.7249    0.0000 H       1  UNL1        0.0377
     14 H           2.3100    0.7869    0.0000 H       1  UNL1        0.0232
     15 H           1.4631    0.5600    0.0000 H       1  UNL1        0.0232
     16 H           1.6900   -0.2869    0.0000 H       1  UNL1        0.0232
     17 H           2.2460   -1.2500    0.0000 H       1  UNL1        0.0232
     18 H           2.8660   -1.8700    0.0000 H       1  UNL1        0.0232
     19 H           3.4860   -1.2500    0.0000 H       1  UNL1        0.0232
     20 H           6.8671    0.0600    0.0000 H       1  UNL1        0.2951
@<TRIPOS>BOND
     1     1     8    1
     2     1    20    1
     3     2     8    2
     4     3     4    1
     5     3     6    1
     6     3     7    1
     7     3     9    1
     8     4     5    1
     9     4    10    1
    10     4    11    1
    11     5     8    1
    12     5    12    1
    13     5    13    1
    14     6    14    1
    15     6    15    1
    16     6    16    1
    17     7    17    1
    18     7    18    1
    19     7    19    1
