@<TRIPOS>MOLECULE
IMPHY005417
 31 31 0 0 0
SMALL
GASTEIGER

@<TRIPOS>ATOM
      1 O           4.2690    2.5000    0.0000 O.3     1  UNL1       -0.4915
      2 O           2.5369    1.5000    0.0000 O.3     1  UNL1       -0.5033
      3 N           6.8671   -2.0000    0.0000 N.3     1  UNL1       -0.3080
      4 C           6.0010   -0.5000    0.0000 C.3     1  UNL1       -0.0148
      5 C           6.0010   -1.5000    0.0000 C.3     1  UNL1        0.0023
      6 C           5.1350    0.0000    0.0000 C.ar    1  UNL1       -0.0425
      7 C           5.1350    1.0000    0.0000 C.ar    1  UNL1       -0.0131
      8 C           4.2690   -0.5000    0.0000 C.ar    1  UNL1       -0.0549
      9 C           6.8671   -3.0000    0.0000 C.3     1  UNL1       -0.0130
     10 C           7.7331   -1.5000    0.0000 C.3     1  UNL1       -0.0130
     11 C           4.2690    1.5000    0.0000 C.ar    1  UNL1        0.1615
     12 C           3.4030    0.0000    0.0000 C.ar    1  UNL1       -0.0163
     13 C           3.4030    1.0000    0.0000 C.ar    1  UNL1        0.1585
     14 C           5.1350    3.0000    0.0000 C.3     1  UNL1        0.0790
     15 H           6.6116   -0.6077    0.0000 H       1  UNL1        0.0326
     16 H           6.2131    0.0826    0.0000 H       1  UNL1        0.0326
     17 H           5.3905   -1.3923    0.0000 H       1  UNL1        0.0429
     18 H           5.7890   -2.0826    0.0000 H       1  UNL1        0.0429
     19 H           5.6720    1.3100    0.0000 H       1  UNL1        0.0658
     20 H           4.2690   -1.1200    0.0000 H       1  UNL1        0.0621
     21 H           6.2471   -3.0000    0.0000 H       1  UNL1        0.0391
     22 H           6.8671   -3.6200    0.0000 H       1  UNL1        0.0391
     23 H           7.4871   -3.0000    0.0000 H       1  UNL1        0.0391
     24 H           8.0431   -2.0369    0.0000 H       1  UNL1        0.0391
     25 H           8.2700   -1.1900    0.0000 H       1  UNL1        0.0391
     26 H           7.4231   -0.9631    0.0000 H       1  UNL1        0.0391
     27 H           2.8660   -0.3100    0.0000 H       1  UNL1        0.0655
     28 H           2.0000    1.1900    0.0000 H       1  UNL1        0.2923
     29 H           5.4450    2.4631    0.0000 H       1  UNL1        0.0660
     30 H           5.6720    3.3100    0.0000 H       1  UNL1        0.0660
     31 H           4.8250    3.5369    0.0000 H       1  UNL1        0.0660
@<TRIPOS>BOND
     1     1    11    1
     2     1    14    1
     3     2    13    1
     4     2    28    1
     5     3     5    1
     6     3     9    1
     7     3    10    1
     8     4     5    1
     9     4     6    1
    10     4    15    1
    11     4    16    1
    12     5    17    1
    13     5    18    1
    14     6     7   ar
    15     6     8   ar
    16     7    11   ar
    17     7    19    1
    18     8    12   ar
    19     8    20    1
    20     9    21    1
    21     9    22    1
    22     9    23    1
    23    10    24    1
    24    10    25    1
    25    10    26    1
    26    11    13   ar
    27    12    13   ar
    28    12    27    1
    29    14    29    1
    30    14    30    1
    31    14    31    1
