@<TRIPOS>MOLECULE
IMPHY015958
 40 42 0 0 0
SMALL
GASTEIGER

@<TRIPOS>ATOM
      1 O           5.3611    2.4676    0.0000 O.3     1  UNL1       -0.3912
      2 C           4.4962   -0.8034    0.0000 C.3     1  UNL1       -0.0275
      3 C           3.6871   -0.2156    0.0000 C.3     1  UNL1       -0.0334
      4 C           3.5823   -1.2106    0.0000 C.3     1  UNL1       -0.0319
      5 C           5.3052   -0.2156    0.0000 C.3     1  UNL1       -0.0090
      6 C           4.9962    0.7354    0.0000 C.3     1  UNL1        0.0009
      7 C           3.9962    0.7354    0.0000 C.3     1  UNL1       -0.0413
      8 C           2.9945   -2.0196    0.0000 C.3     1  UNL1       -0.0433
      9 C           5.6811    1.5202    0.0000 C.3     1  UNL1        0.0614
     10 C           6.3206   -0.4479    0.0000 C.2     1  UNL1       -0.0726
     11 C           4.6871    1.6865    0.0000 C.3     1  UNL1       -0.0566
     12 C           6.7016    1.3115    0.0000 C.3     1  UNL1       -0.0226
     13 C           7.0235    0.3208    0.0000 C.3     1  UNL1       -0.0294
     14 C           2.0000   -1.9150    0.0000 C.3     1  UNL1       -0.0624
     15 C           3.4013   -2.9331    0.0000 C.3     1  UNL1       -0.0624
     16 C           6.6186   -1.4024    0.0000 C.2     1  UNL1       -0.0992
     17 H           4.8062   -1.3403    0.0000 H       1  UNL1        0.0312
     18 H           3.0807   -0.0866    0.0000 H       1  UNL1        0.0307
     19 H           3.0035   -0.9883    0.0000 H       1  UNL1        0.0309
     20 H           5.4755   -1.0484    0.0000 H       1  UNL1        0.0354
     21 H           4.0610    1.3520    0.0000 H       1  UNL1        0.0274
     22 H           3.3897    0.8643    0.0000 H       1  UNL1        0.0274
     23 H           3.6111   -2.0844    0.0000 H       1  UNL1        0.0298
     24 H           6.0915    1.9849    0.0000 H       1  UNL1        0.0599
     25 H           5.2768    1.8781    0.0000 H       1  UNL1        0.0236
     26 H           4.4956    2.2762    0.0000 H       1  UNL1        0.0236
     27 H           4.0975    1.4949    0.0000 H       1  UNL1        0.0236
     28 H           7.3154    1.3993    0.0000 H       1  UNL1        0.0293
     29 H           6.7201    1.9312    0.0000 H       1  UNL1        0.0293
     30 H           7.4027   -0.1697    0.0000 H       1  UNL1        0.0311
     31 H           7.5717    0.6105    0.0000 H       1  UNL1        0.0311
     32 H           2.0648   -1.2984    0.0000 H       1  UNL1        0.0232
     33 H           1.3834   -1.8502    0.0000 H       1  UNL1        0.0232
     34 H           1.9352   -2.5316    0.0000 H       1  UNL1        0.0232
     35 H           2.8349   -3.1853    0.0000 H       1  UNL1        0.0232
     36 H           3.6534   -3.4995    0.0000 H       1  UNL1        0.0232
     37 H           3.9677   -2.6809    0.0000 H       1  UNL1        0.0232
     38 H           6.1984   -1.8584    0.0000 H       1  UNL1        0.0534
     39 H           7.2235   -1.5383    0.0000 H       1  UNL1        0.0534
     40 H           5.7706    2.9331    0.0000 H       1  UNL1        0.2098
@<TRIPOS>BOND
     1     9     1    1
     2     1    40    1
     3     2     3    1
     4     2     4    1
     5     2     5    1
     6     2    17    1
     7     3     4    1
     8     3     7    1
     9     3    18    1
    10     4     8    1
    11     4    19    1
    12     5     6    1
    13     5    10    1
    14     5    20    1
    15     6     7    1
    16     6     9    1
    17     6    11    1
    18     7    21    1
    19     7    22    1
    20     8    14    1
    21     8    15    1
    22     8    23    1
    23     9    12    1
    24     9    24    1
    25    10    13    1
    26    10    16    2
    27    11    25    1
    28    11    26    1
    29    11    27    1
    30    12    13    1
    31    12    28    1
    32    12    29    1
    33    13    30    1
    34    13    31    1
    35    14    32    1
    36    14    33    1
    37    14    34    1
    38    15    35    1
    39    15    36    1
    40    15    37    1
    41    16    38    1
    42    16    39    1
