@<TRIPOS>MOLECULE
IMPHY010193
 59 62 0 0 0
SMALL
GASTEIGER

@<TRIPOS>ATOM
      1 O           5.2476    1.4273    0.0000 O.3     1  UNL1       -0.4598
      2 O           6.8014    4.3049    0.0000 O.3     1  UNL1       -0.3911
      3 O           6.0010   -1.4090    0.0000 O.3     1  UNL1       -0.3443
      4 O           4.2690   -1.4090    0.0000 O.3     1  UNL1       -0.3405
      5 O           3.6777    2.2584    0.0000 O.2     1  UNL1       -0.2505
      6 O           9.4361    0.3150    0.0000 O.2     1  UNL1       -0.2876
      7 O           6.0010   -3.4090    0.0000 O.3     1  UNL1       -0.3841
      8 O           4.2690   -4.4090    0.0000 O.3     1  UNL1       -0.3864
      9 O           2.5369   -3.4090    0.0000 O.3     1  UNL1       -0.3865
     10 O           2.5369   -0.4090    0.0000 O.3     1  UNL1       -0.3924
     11 C           6.2155    2.7161    0.0000 C.3     1  UNL1        0.0359
     12 C           6.1988    1.7162    0.0000 C.3     1  UNL1        0.1196
     13 C           6.9701    1.0797    0.0000 C.3     1  UNL1        0.0487
     14 C           5.2745    3.0365    0.0000 C.3     1  UNL1        0.0622
     15 C           7.0076    3.3264    0.0000 C.3     1  UNL1        0.0659
     16 C           7.9486    1.2860    0.0000 C.2     1  UNL1        0.0090
     17 C           7.9787    3.0876    0.0000 C.3     1  UNL1       -0.0048
     18 C           6.8671    0.0910    0.0000 C.2     1  UNL1       -0.0295
     19 C           8.3975    2.1796    0.0000 C.2     1  UNL1       -0.0627
     20 C           4.6775    2.2417    0.0000 C.2     1  UNL1        0.3107
     21 C           4.9797    3.9921    0.0000 C.3     1  UNL1       -0.0518
     22 C           8.4419    0.4229    0.0000 C.2     1  UNL1        0.1828
     23 C           7.7748   -0.3141    0.0000 C.2     1  UNL1       -0.0125
     24 C           6.0010   -0.4090    0.0000 C.3     1  UNL1        0.0729
     25 C           9.3973    2.1629    0.0000 C.3     1  UNL1       -0.0430
     26 C           5.1350   -1.9090    0.0000 C.3     1  UNL1        0.1883
     27 C           5.1350   -2.9090    0.0000 C.3     1  UNL1        0.1341
     28 C           4.2690   -3.4090    0.0000 C.3     1  UNL1        0.1141
     29 C           3.4030   -2.9090    0.0000 C.3     1  UNL1        0.1119
     30 C           3.4030   -1.9090    0.0000 C.3     1  UNL1        0.1130
     31 C           2.5369   -1.4090    0.0000 C.3     1  UNL1        0.0730
     32 H           6.0766    3.5546    0.0000 H       1  UNL1        0.0370
     33 H           6.0320    0.8827    0.0000 H       1  UNL1        0.0747
     34 H           6.1835    0.7577    0.0000 H       1  UNL1        0.0432
     35 H           5.7192    3.4685    0.0000 H       1  UNL1        0.0415
     36 H           7.4533    3.7574    0.0000 H       1  UNL1        0.0600
     37 H           8.5854    3.2155    0.0000 H       1  UNL1        0.0335
     38 H           7.9890    3.7076    0.0000 H       1  UNL1        0.0335
     39 H           5.5722    4.1749    0.0000 H       1  UNL1        0.0238
     40 H           4.7970    4.5846    0.0000 H       1  UNL1        0.0238
     41 H           4.3873    3.8094    0.0000 H       1  UNL1        0.0238
     42 H           7.9027   -0.9208    0.0000 H       1  UNL1        0.0656
     43 H           5.7890    0.1736    0.0000 H       1  UNL1        0.0608
     44 H           5.3905   -0.5166    0.0000 H       1  UNL1        0.0608
     45 H           7.2629    4.7190    0.0000 H       1  UNL1        0.2098
     46 H           9.3870    1.5430    0.0000 H       1  UNL1        0.0275
     47 H          10.0173    2.1525    0.0000 H       1  UNL1        0.0275
     48 H           9.4077    2.7828    0.0000 H       1  UNL1        0.0275
     49 H           5.1350   -1.2890    0.0000 H       1  UNL1        0.0938
     50 H           5.1350   -3.5290    0.0000 H       1  UNL1        0.0671
     51 H           3.7320   -3.7190    0.0000 H       1  UNL1        0.0648
     52 H           2.8660   -2.5990    0.0000 H       1  UNL1        0.0647
     53 H           3.4030   -1.2890    0.0000 H       1  UNL1        0.0647
     54 H           1.9264   -1.3013    0.0000 H       1  UNL1        0.0584
     55 H           2.3249   -1.9916    0.0000 H       1  UNL1        0.0584
     56 H           6.5380   -3.0990    0.0000 H       1  UNL1        0.2101
     57 H           3.7320   -4.7190    0.0000 H       1  UNL1        0.2100
     58 H           2.0000   -3.0990    0.0000 H       1  UNL1        0.2100
     59 H           2.0000   -0.0990    0.0000 H       1  UNL1        0.2095
@<TRIPOS>BOND
     1     1    12    1
     2     1    20    1
     3    15     2    1
     4     2    45    1
     5     3    24    1
     6    26     3    1
     7     4    26    1
     8     4    30    1
     9     5    20    2
    10     6    22    2
    11    27     7    1
    12     7    56    1
    13    28     8    1
    14     8    57    1
    15    29     9    1
    16     9    58    1
    17    10    31    1
    18    10    59    1
    19    11    12    1
    20    11    14    1
    21    11    15    1
    22    11    32    1
    23    12    13    1
    24    12    33    1
    25    13    16    1
    26    13    18    1
    27    13    34    1
    28    14    20    1
    29    14    21    1
    30    14    35    1
    31    15    17    1
    32    15    36    1
    33    16    19    2
    34    16    22    1
    35    17    19    1
    36    17    37    1
    37    17    38    1
    38    18    23    2
    39    18    24    1
    40    19    25    1
    41    21    39    1
    42    21    40    1
    43    21    41    1
    44    22    23    1
    45    23    42    1
    46    24    43    1
    47    24    44    1
    48    25    46    1
    49    25    47    1
    50    25    48    1
    51    26    27    1
    52    26    49    1
    53    27    28    1
    54    27    50    1
    55    28    29    1
    56    28    51    1
    57    29    30    1
    58    29    52    1
    59    30    31    1
    60    30    53    1
    61    31    54    1
    62    31    55    1
