@<TRIPOS>MOLECULE
IMPHY008196
 15 14 0 0 0
SMALL
GASTEIGER

@<TRIPOS>ATOM
      1 O           2.0000    0.2500    0.0000 O.2     1  UNL1       -0.2963
      2 C           6.3301   -0.2500    0.0000 C.2     1  UNL1       -0.0871
      3 C           5.4641    0.2500    0.0000 C.2     1  UNL1       -0.0659
      4 C           7.1962    0.2500    0.0000 C.3     1  UNL1       -0.0465
      5 C           4.5981   -0.2500    0.0000 C.2     1  UNL1       -0.0590
      6 C           3.7320    0.2500    0.0000 C.2     1  UNL1       -0.0225
      7 C           2.8660   -0.2500    0.0000 C.2     1  UNL1        0.1431
      8 H           6.3301   -0.8700    0.0000 H       1  UNL1        0.0569
      9 H           5.4641    0.8700    0.0000 H       1  UNL1        0.0614
     10 H           7.5062   -0.2869    0.0000 H       1  UNL1        0.0272
     11 H           7.7331    0.5600    0.0000 H       1  UNL1        0.0272
     12 H           6.8862    0.7869    0.0000 H       1  UNL1        0.0272
     13 H           4.5981   -0.8700    0.0000 H       1  UNL1        0.0618
     14 H           3.7320    0.8700    0.0000 H       1  UNL1        0.0649
     15 H           2.8660   -0.8700    0.0000 H       1  UNL1        0.1075
@<TRIPOS>BOND
     1     1     7    2
     2     2     3    2
     3     2     4    1
     4     2     8    1
     5     3     5    1
     6     3     9    1
     7     4    10    1
     8     4    11    1
     9     4    12    1
    10     5     6    2
    11     5    13    1
    12     6     7    1
    13     6    14    1
    14     7    15    1
