@<TRIPOS>MOLECULE
IMPHY010262
 137 144 0 0 0
SMALL
GASTEIGER

@<TRIPOS>ATOM
      1 O          11.7543    2.6557    0.0000 O.3     1  UNL1       -0.3450
      2 O          10.2252    3.8876    0.0000 O.3     1  UNL1       -0.3642
      3 O          10.3312   -5.5884    0.0000 O.3     1  UNL1       -0.3429
      4 O           8.5238   -4.5356    0.0000 O.3     1  UNL1       -0.3892
      5 O           8.5991   -5.5884    0.0000 O.3     1  UNL1       -0.3405
      6 O          14.3888    5.7550    0.0000 O.3     1  UNL1       -0.3484
      7 O          10.3312   -7.5884    0.0000 O.3     1  UNL1       -0.3841
      8 O           8.5991   -8.5884    0.0000 O.3     1  UNL1       -0.3864
      9 O           6.8671   -7.5884    0.0000 O.3     1  UNL1       -0.3865
     10 O           6.0010   -6.0884    0.0000 O.3     1  UNL1       -0.3461
     11 O          15.8862    6.6255    0.0000 O.3     1  UNL1       -0.3405
     12 O          15.3939    4.0260    0.0000 O.3     1  UNL1       -0.3841
     13 O          17.3939    4.0319    0.0000 O.3     1  UNL1       -0.3864
     14 O           4.2690   -6.0884    0.0000 O.3     1  UNL1       -0.3461
     15 O          18.3888    5.7670    0.0000 O.3     1  UNL1       -0.3865
     16 O           6.0010   -4.0884    0.0000 O.3     1  UNL1       -0.3841
     17 O          16.8810    8.3605    0.0000 O.3     1  UNL1       -0.3924
     18 O           4.2690   -3.0884    0.0000 O.3     1  UNL1       -0.3864
     19 O           2.5369   -4.0884    0.0000 O.3     1  UNL1       -0.3869
     20 C          10.3604    0.6085    0.0000 C.3     1  UNL1       -0.0233
     21 C          11.2284    0.1118    0.0000 C.3     1  UNL1       -0.0298
     22 C          11.2322   -0.8882    0.0000 C.3     1  UNL1       -0.0343
     23 C          10.5659    1.5811    0.0000 C.3     1  UNL1       -0.0015
     24 C          10.3681   -1.3915    0.0000 C.3     1  UNL1       -0.0322
     25 C          10.3561   -2.4331    0.0000 C.3     1  UNL1       -0.0237
     26 C          11.5542    1.6880    0.0000 C.3     1  UNL1        0.0660
     27 C          11.9628    0.7817    0.0000 C.3     1  UNL1       -0.0226
     28 C           9.4963    0.1051    0.0000 C.3     1  UNL1       -0.0467
     29 C           9.5002   -0.8949    0.0000 C.3     1  UNL1       -0.0489
     30 C          11.2562   -2.9574    0.0000 C.3     1  UNL1       -0.0329
     31 C          10.1636    2.4837    0.0000 C.3     1  UNL1        0.0158
     32 C          12.1442   -1.3915    0.0000 C.3     1  UNL1       -0.0494
     33 C          12.1562   -2.4331    0.0000 C.3     1  UNL1       -0.0494
     34 C           9.4925    1.1051    0.0000 C.3     1  UNL1       -0.0590
     35 C          10.8966    3.1465    0.0000 C.3     1  UNL1        0.1704
     36 C           9.4062   -2.9574    0.0000 C.3     1  UNL1       -0.0185
     37 C          11.2687   -4.0423    0.0000 C.3     1  UNL1       -0.0207
     38 C           9.4920   -1.9297    0.0000 C.3     1  UNL1       -0.0590
     39 C           9.3936   -4.0423    0.0000 C.3     1  UNL1        0.0819
     40 C          10.3312   -4.5884    0.0000 C.3     1  UNL1        0.0879
     41 C           9.1852    2.6904    0.0000 C.3     1  UNL1       -0.0572
     42 C          11.3940    4.0140    0.0000 C.3     1  UNL1        0.0018
     43 C          12.3940    4.0170    0.0000 C.3     1  UNL1       -0.0435
     44 C          12.8914    4.8845    0.0000 C.3     1  UNL1       -0.0201
     45 C           9.4651   -6.0884    0.0000 C.3     1  UNL1        0.1883
     46 C           9.4651   -7.0884    0.0000 C.3     1  UNL1        0.1341
     47 C          13.8914    4.8875    0.0000 C.3     1  UNL1        0.0533
     48 C          12.3888    5.7490    0.0000 C.3     1  UNL1       -0.0603
     49 C           8.5991   -7.5884    0.0000 C.3     1  UNL1        0.1141
     50 C           7.7331   -6.0884    0.0000 C.3     1  UNL1        0.1134
     51 C           7.7331   -7.0884    0.0000 C.3     1  UNL1        0.1119
     52 C           6.8671   -5.5884    0.0000 C.3     1  UNL1        0.0796
     53 C          15.3888    5.7580    0.0000 C.3     1  UNL1        0.1879
     54 C          15.8914    4.8935    0.0000 C.3     1  UNL1        0.1341
     55 C          16.8914    4.8965    0.0000 C.3     1  UNL1        0.1141
     56 C          16.8862    6.6285    0.0000 C.3     1  UNL1        0.1130
     57 C          17.3888    5.7640    0.0000 C.3     1  UNL1        0.1119
     58 C           5.1350   -5.5884    0.0000 C.3     1  UNL1        0.1876
     59 C           5.1350   -4.5884    0.0000 C.3     1  UNL1        0.1341
     60 C          17.3836    7.4960    0.0000 C.3     1  UNL1        0.0730
     61 C           4.2690   -4.0884    0.0000 C.3     1  UNL1        0.1137
     62 C           3.4030   -5.5884    0.0000 C.3     1  UNL1        0.0792
     63 C           3.4030   -4.5884    0.0000 C.3     1  UNL1        0.1069
     64 H          12.0067   -0.2299    0.0000 H       1  UNL1        0.0310
     65 H          11.9634   -0.4547    0.0000 H       1  UNL1        0.0306
     66 H           9.7206    1.4915    0.0000 H       1  UNL1        0.0335
     67 H          11.1026   -1.8194    0.0000 H       1  UNL1        0.0309
     68 H          12.3991    1.7812    0.0000 H       1  UNL1        0.0600
     69 H          12.3302    0.2823    0.0000 H       1  UNL1        0.0293
     70 H          12.4981    1.0946    0.0000 H       1  UNL1        0.0293
     71 H           9.2820    0.6869    0.0000 H       1  UNL1        0.0271
     72 H           8.8862   -0.0049    0.0000 H       1  UNL1        0.0271
     73 H           8.8892   -0.7895    0.0000 H       1  UNL1        0.0268
     74 H           9.2904   -1.4783    0.0000 H       1  UNL1        0.0268
     75 H          11.9955   -3.3767    0.0000 H       1  UNL1        0.0307
     76 H          10.0021    3.0823    0.0000 H       1  UNL1        0.0354
     77 H          12.7562   -1.4905    0.0000 H       1  UNL1        0.0268
     78 H          12.3465   -0.8054    0.0000 H       1  UNL1        0.0268
     79 H          12.3720   -3.0143    0.0000 H       1  UNL1        0.0268
     80 H          12.7658   -2.3199    0.0000 H       1  UNL1        0.0268
     81 H           9.8004    1.6433    0.0000 H       1  UNL1        0.0235
     82 H           8.9544    1.4131    0.0000 H       1  UNL1        0.0235
     83 H           9.1846    0.5670    0.0000 H       1  UNL1        0.0235
     84 H           9.2039   -2.3713    0.0000 H       1  UNL1        0.0296
     85 H           8.7941   -3.0564    0.0000 H       1  UNL1        0.0296
     86 H          11.4845   -4.6235    0.0000 H       1  UNL1        0.0294
     87 H          11.8783   -3.9291    0.0000 H       1  UNL1        0.0294
     88 H           9.8041   -1.3940    0.0000 H       1  UNL1        0.0235
     89 H           8.9563   -1.6177    0.0000 H       1  UNL1        0.0235
     90 H           9.1799   -2.4655    0.0000 H       1  UNL1        0.0235
     91 H           8.8597   -3.7271    0.0000 H       1  UNL1        0.0619
     92 H          10.8687   -4.8974    0.0000 H       1  UNL1        0.0623
     93 H           9.3133    3.2970    0.0000 H       1  UNL1        0.0234
     94 H           8.5786    2.8185    0.0000 H       1  UNL1        0.0234
     95 H           9.0570    2.0838    0.0000 H       1  UNL1        0.0234
     96 H          11.4998    4.6249    0.0000 H       1  UNL1        0.0317
     97 H          10.8107    4.2243    0.0000 H       1  UNL1        0.0317
     98 H          10.4150    4.4778    0.0000 H       1  UNL1        0.2128
     99 H          12.2881    3.4061    0.0000 H       1  UNL1        0.0270
    100 H          12.9772    3.8067    0.0000 H       1  UNL1        0.0270
    101 H           7.9892   -4.2215    0.0000 H       1  UNL1        0.2099
    102 H          13.1998    5.4224    0.0000 H       1  UNL1        0.0320
    103 H          10.0021   -6.3984    0.0000 H       1  UNL1        0.0938
    104 H           9.4651   -7.7084    0.0000 H       1  UNL1        0.0671
    105 H          13.7855    4.2766    0.0000 H       1  UNL1        0.0563
    106 H          14.4746    4.6772    0.0000 H       1  UNL1        0.0563
    107 H          12.9248    6.0606    0.0000 H       1  UNL1        0.0233
    108 H          12.0772    6.2850    0.0000 H       1  UNL1        0.0233
    109 H          11.8528    5.4374    0.0000 H       1  UNL1        0.0233
    110 H           8.0622   -7.8984    0.0000 H       1  UNL1        0.0648
    111 H           7.7331   -5.4684    0.0000 H       1  UNL1        0.0647
    112 H           7.1962   -6.7784    0.0000 H       1  UNL1        0.0647
    113 H          10.3312   -8.2084    0.0000 H       1  UNL1        0.2101
    114 H           7.2656   -5.1134    0.0000 H       1  UNL1        0.0587
    115 H           6.4685   -5.1134    0.0000 H       1  UNL1        0.0587
    116 H           8.0622   -8.8984    0.0000 H       1  UNL1        0.2100
    117 H          15.0772    6.2940    0.0000 H       1  UNL1        0.0937
    118 H           6.8671   -8.2084    0.0000 H       1  UNL1        0.2100
    119 H          15.2714    4.8916    0.0000 H       1  UNL1        0.0671
    120 H          17.5113    4.8983    0.0000 H       1  UNL1        0.0648
    121 H          16.5746    7.1645    0.0000 H       1  UNL1        0.0647
    122 H          17.6972    6.3018    0.0000 H       1  UNL1        0.0647
    123 H           5.6720   -5.2784    0.0000 H       1  UNL1        0.0937
    124 H          15.7056    3.4899    0.0000 H       1  UNL1        0.2101
    125 H           5.1350   -3.9684    0.0000 H       1  UNL1        0.0671
    126 H          17.8597    7.0989    0.0000 H       1  UNL1        0.0584
    127 H          17.8573    7.8960    0.0000 H       1  UNL1        0.0584
    128 H          18.0139    4.0338    0.0000 H       1  UNL1        0.2100
    129 H           3.7320   -3.7784    0.0000 H       1  UNL1        0.0647
    130 H          18.6971    6.3048    0.0000 H       1  UNL1        0.2100
    131 H           2.7924   -5.4807    0.0000 H       1  UNL1        0.0587
    132 H           3.1909   -6.1710    0.0000 H       1  UNL1        0.0587
    133 H           3.9650   -3.9684    0.0000 H       1  UNL1        0.0643
    134 H           6.0010   -3.4684    0.0000 H       1  UNL1        0.2101
    135 H          17.1894    8.8984    0.0000 H       1  UNL1        0.2095
    136 H           3.7320   -2.7784    0.0000 H       1  UNL1        0.2100
    137 H           2.0000   -4.3984    0.0000 H       1  UNL1        0.2100
@<TRIPOS>BOND
     1     1    26    1
     2     1    35    1
     3     2    35    1
     4     2    98    1
     5    40     3    1
     6    45     3    1
     7    39     4    1
     8     4   101    1
     9     5    45    1
    10     5    50    1
    11     6    47    1
    12    53     6    1
    13    46     7    1
    14     7   113    1
    15    49     8    1
    16     8   116    1
    17    51     9    1
    18     9   118    1
    19    10    52    1
    20    58    10    1
    21    11    53    1
    22    11    56    1
    23    54    12    1
    24    12   124    1
    25    55    13    1
    26    13   128    1
    27    14    58    1
    28    14    62    1
    29    57    15    1
    30    15   130    1
    31    59    16    1
    32    16   134    1
    33    17    60    1
    34    17   135    1
    35    61    18    1
    36    18   136    1
    37    63    19    1
    38    19   137    1
    39    20    21    1
    40    20    23    1
    41    20    28    1
    42    20    34    1
    43    21    22    1
    44    21    27    1
    45    21    64    1
    46    22    24    1
    47    22    32    1
    48    22    65    1
    49    23    26    1
    50    23    31    1
    51    23    66    1
    52    24    25    1
    53    24    29    1
    54    24    67    1
    55    25    30    1
    56    25    36    1
    57    25    38    1
    58    26    27    1
    59    26    68    1
    60    27    69    1
    61    27    70    1
    62    28    29    1
    63    28    71    1
    64    28    72    1
    65    29    73    1
    66    29    74    1
    67    30    33    1
    68    30    37    1
    69    30    75    1
    70    31    35    1
    71    31    41    1
    72    31    76    1
    73    32    33    1
    74    32    77    1
    75    32    78    1
    76    33    79    1
    77    33    80    1
    78    34    81    1
    79    34    82    1
    80    34    83    1
    81    35    42    1
    82    36    39    1
    83    36    84    1
    84    36    85    1
    85    37    40    1
    86    37    86    1
    87    37    87    1
    88    38    88    1
    89    38    89    1
    90    38    90    1
    91    39    40    1
    92    39    91    1
    93    40    92    1
    94    41    93    1
    95    41    94    1
    96    41    95    1
    97    42    43    1
    98    42    96    1
    99    42    97    1
   100    43    44    1
   101    43    99    1
   102    43   100    1
   103    44    47    1
   104    44    48    1
   105    44   102    1
   106    45    46    1
   107    45   103    1
   108    46    49    1
   109    46   104    1
   110    47   105    1
   111    47   106    1
   112    48   107    1
   113    48   108    1
   114    48   109    1
   115    49    51    1
   116    49   110    1
   117    50    51    1
   118    50    52    1
   119    50   111    1
   120    51   112    1
   121    52   114    1
   122    52   115    1
   123    53    54    1
   124    53   117    1
   125    54    55    1
   126    54   119    1
   127    55    57    1
   128    55   120    1
   129    56    57    1
   130    56    60    1
   131    56   121    1
   132    57   122    1
   133    58    59    1
   134    58   123    1
   135    59    61    1
   136    59   125    1
   137    60   126    1
   138    60   127    1
   139    61    63    1
   140    61   129    1
   141    62    63    1
   142    62   131    1
   143    62   132    1
   144    63   133    1
