@<TRIPOS>MOLECULE
IMPHY005685
 80 85 0 0 0
SMALL
GASTEIGER

@<TRIPOS>ATOM
      1 O           7.7662    1.6674    0.0000 O.3     1  UNL1       -0.3877
      2 O           6.0010   -3.5361    0.0000 O.3     1  UNL1       -0.3454
      3 O           4.3961   -0.9669    0.0000 O.2     1  UNL1       -0.3004
      4 O           4.1621    5.1811    0.0000 O.3     1  UNL1       -0.4571
      5 O           4.2690   -3.5361    0.0000 O.3     1  UNL1       -0.3431
      6 O           4.7972    6.8461    0.0000 O.2     1  UNL1       -0.2456
      7 O           6.0010   -5.5361    0.0000 O.3     1  UNL1       -0.3841
      8 O           4.2690   -6.5361    0.0000 O.3     1  UNL1       -0.3864
      9 O           2.5369   -5.5361    0.0000 O.3     1  UNL1       -0.3866
     10 C           6.8982    2.1641    0.0000 C.3     1  UNL1        0.0751
     11 C           6.9021    1.1641    0.0000 C.3     1  UNL1       -0.0079
     12 C           6.0303    2.6608    0.0000 C.3     1  UNL1        0.0036
     13 C           6.0380    0.6608    0.0000 C.3     1  UNL1       -0.0232
     14 C           6.0260   -0.3808    0.0000 C.3     1  UNL1        0.0321
     15 C           6.2358    3.6334    0.0000 C.3     1  UNL1       -0.0081
     16 C           5.1662    2.1574    0.0000 C.3     1  UNL1       -0.0442
     17 C           6.9260   -0.9051    0.0000 C.3     1  UNL1       -0.0263
     18 C           5.1701    1.1574    0.0000 C.3     1  UNL1       -0.0484
     19 C           7.6327    2.8340    0.0000 C.3     1  UNL1       -0.0226
     20 C           7.8140    0.6608    0.0000 C.3     1  UNL1       -0.0470
     21 C           7.2241    3.7402    0.0000 C.3     1  UNL1       -0.0432
     22 C           7.8261   -0.3808    0.0000 C.3     1  UNL1       -0.0489
     23 C           5.0761   -0.9051    0.0000 C.3     1  UNL1       -0.0381
     24 C           5.1624    3.1574    0.0000 C.3     1  UNL1       -0.0564
     25 C           6.9386   -1.9900    0.0000 C.3     1  UNL1       -0.0228
     26 C           5.0635   -1.9900    0.0000 C.3     1  UNL1       -0.0256
     27 C           6.0010   -2.5361    0.0000 C.3     1  UNL1        0.0621
     28 C           5.5650    4.3751    0.0000 C.2     1  UNL1       -0.0222
     29 C           5.0418   -0.2034    0.0000 C.2     1  UNL1        0.1270
     30 C           4.5708    4.2684    0.0000 C.3     1  UNL1        0.1147
     31 C           5.7709    5.3537    0.0000 C.2     1  UNL1        0.0252
     32 C           5.1350   -4.0361    0.0000 C.3     1  UNL1        0.1881
     33 C           4.9038    5.8518    0.0000 C.2     1  UNL1        0.3323
     34 C           5.1350   -5.0361    0.0000 C.3     1  UNL1        0.1341
     35 C           4.2690   -5.5361    0.0000 C.3     1  UNL1        0.1140
     36 C           3.4030   -4.0361    0.0000 C.3     1  UNL1        0.0873
     37 C           3.4030   -5.0361    0.0000 C.3     1  UNL1        0.1095
     38 C           2.5369   -3.5361    0.0000 C.3     1  UNL1       -0.0361
     39 H           7.4354    1.4803    0.0000 H       1  UNL1        0.0332
     40 H           5.4999    0.3528    0.0000 H       1  UNL1        0.0314
     41 H           6.4565    4.2128    0.0000 H       1  UNL1        0.0353
     42 H           4.9519    2.7392    0.0000 H       1  UNL1        0.0272
     43 H           4.5560    2.0474    0.0000 H       1  UNL1        0.0272
     44 H           7.6654   -1.3244    0.0000 H       1  UNL1        0.0311
     45 H           4.5591    1.2627    0.0000 H       1  UNL1        0.0268
     46 H           4.9602    0.5740    0.0000 H       1  UNL1        0.0268
     47 H           8.0000    2.3346    0.0000 H       1  UNL1        0.0293
     48 H           8.1680    3.1468    0.0000 H       1  UNL1        0.0293
     49 H           8.4261    0.5617    0.0000 H       1  UNL1        0.0269
     50 H           8.0163    1.2468    0.0000 H       1  UNL1        0.0269
     51 H           7.8129    3.9343    0.0000 H       1  UNL1        0.0272
     52 H           7.0930    4.3462    0.0000 H       1  UNL1        0.0272
     53 H           8.0419   -0.9620    0.0000 H       1  UNL1        0.0268
     54 H           8.4357   -0.2677    0.0000 H       1  UNL1        0.0268
     55 H           4.8738   -0.3190    0.0000 H       1  UNL1        0.0276
     56 H           4.4640   -1.0041    0.0000 H       1  UNL1        0.0276
     57 H           5.4703    3.6955    0.0000 H       1  UNL1        0.0236
     58 H           4.6242    3.4653    0.0000 H       1  UNL1        0.0236
     59 H           4.8544    2.6193    0.0000 H       1  UNL1        0.0236
     60 H           7.1544   -2.5712    0.0000 H       1  UNL1        0.0293
     61 H           7.5482   -1.8769    0.0000 H       1  UNL1        0.0293
     62 H           4.4539   -1.8769    0.0000 H       1  UNL1        0.0290
     63 H           4.8477   -2.5712    0.0000 H       1  UNL1        0.0290
     64 H           6.5386   -2.8451    0.0000 H       1  UNL1        0.0597
     65 H           8.3019    1.9795    0.0000 H       1  UNL1        0.2102
     66 H           4.8320    0.3801    0.0000 H       1  UNL1        0.1032
     67 H           3.9815    4.0756    0.0000 H       1  UNL1        0.0746
     68 H           4.7009    3.6623    0.0000 H       1  UNL1        0.0746
     69 H           6.3367    5.6070    0.0000 H       1  UNL1        0.0689
     70 H           5.1350   -3.4161    0.0000 H       1  UNL1        0.0937
     71 H           5.1350   -5.6561    0.0000 H       1  UNL1        0.0671
     72 H           3.7320   -5.8461    0.0000 H       1  UNL1        0.0648
     73 H           3.4030   -3.4161    0.0000 H       1  UNL1        0.0621
     74 H           2.8660   -4.7261    0.0000 H       1  UNL1        0.0646
     75 H           6.0010   -6.1561    0.0000 H       1  UNL1        0.2101
     76 H           2.8469   -2.9992    0.0000 H       1  UNL1        0.0255
     77 H           2.0000   -3.2261    0.0000 H       1  UNL1        0.0255
     78 H           2.2269   -4.0731    0.0000 H       1  UNL1        0.0255
     79 H           3.7320   -6.8461    0.0000 H       1  UNL1        0.2100
     80 H           2.0000   -5.2261    0.0000 H       1  UNL1        0.2100
@<TRIPOS>BOND
     1    10     1    1
     2     1    65    1
     3    27     2    1
     4    32     2    1
     5     3    29    2
     6     4    30    1
     7     4    33    1
     8     5    32    1
     9     5    36    1
    10     6    33    2
    11     7    34    1
    12     7    75    1
    13     8    35    1
    14     8    79    1
    15    37     9    1
    16     9    80    1
    17    10    11    1
    18    10    12    1
    19    10    19    1
    20    11    13    1
    21    11    20    1
    22    11    39    1
    23    12    15    1
    24    12    16    1
    25    12    24    1
    26    13    14    1
    27    13    18    1
    28    13    40    1
    29    14    17    1
    30    14    23    1
    31    14    29    1
    32    15    21    1
    33    15    28    1
    34    15    41    1
    35    16    18    1
    36    16    42    1
    37    16    43    1
    38    17    22    1
    39    17    25    1
    40    17    44    1
    41    18    45    1
    42    18    46    1
    43    19    21    1
    44    19    47    1
    45    19    48    1
    46    20    22    1
    47    20    49    1
    48    20    50    1
    49    21    51    1
    50    21    52    1
    51    22    53    1
    52    22    54    1
    53    23    26    1
    54    23    55    1
    55    23    56    1
    56    24    57    1
    57    24    58    1
    58    24    59    1
    59    25    27    1
    60    25    60    1
    61    25    61    1
    62    26    27    1
    63    26    62    1
    64    26    63    1
    65    27    64    1
    66    28    30    1
    67    28    31    2
    68    29    66    1
    69    30    67    1
    70    30    68    1
    71    31    33    1
    72    31    69    1
    73    32    34    1
    74    32    70    1
    75    34    35    1
    76    34    71    1
    77    35    37    1
    78    35    72    1
    79    36    37    1
    80    36    38    1
    81    36    73    1
    82    37    74    1
    83    38    76    1
    84    38    77    1
    85    38    78    1
