@<TRIPOS>MOLECULE
IMPHY009195
 65 71 0 0 0
SMALL
GASTEIGER

@<TRIPOS>ATOM
      1 O           6.3964   -1.6803    0.0000 O.3     1  UNL1       -0.4754
      2 O           8.3635   -1.2234    0.0000 O.3     1  UNL1       -0.4539
      3 O           5.7396    0.7915    0.0000 O.3     1  UNL1       -0.4790
      4 O           9.3086   -0.9192    0.0000 O.2     1  UNL1       -0.2500
      5 O           2.3659   -1.4784    0.0000 O.3     1  UNL1       -0.5053
      6 O           9.2576    2.8366    0.0000 O.3     1  UNL1       -0.5053
      7 O           2.5842    0.2806    0.0000 O.3     1  UNL1       -0.4644
      8 O          10.1136    1.2783    0.0000 O.3     1  UNL1       -0.4644
      9 O           4.1739    0.9681    0.0000 O.2     1  UNL1       -0.2448
     10 O          10.1021    0.2784    0.0000 O.2     1  UNL1       -0.2448
     11 C           6.6056   -0.7085    0.0000 C.3     1  UNL1        0.2068
     12 C           7.2727   -1.4455    0.0000 C.3     1  UNL1        0.1522
     13 C           7.4716   -0.2085    0.0000 C.3     1  UNL1        0.1329
     14 C           5.7396   -0.2085    0.0000 C.3     1  UNL1        0.1737
     15 C           5.0026   -0.8756    0.0000 C.ar    1  UNL1        0.0565
     16 C           7.4716    0.7915    0.0000 C.ar    1  UNL1        0.0303
     17 C           8.4435   -0.4177    0.0000 C.2     1  UNL1        0.3195
     18 C           5.4077   -1.7834    0.0000 C.ar    1  UNL1        0.1372
     19 C           7.9431   -2.1875    0.0000 C.3     1  UNL1       -0.0211
     20 C           6.9323   -2.3858    0.0000 C.3     1  UNL1       -0.0211
     21 C           6.6056    1.2915    0.0000 C.ar    1  UNL1        0.1344
     22 C           3.9745   -0.7524    0.0000 C.ar    1  UNL1        0.1111
     23 C           8.3816    1.2983    0.0000 C.ar    1  UNL1        0.1084
     24 C           4.8128   -2.6309    0.0000 C.ar    1  UNL1        0.0278
     25 C           6.5896    2.3330    0.0000 C.ar    1  UNL1        0.0277
     26 C           3.7821   -2.5315    0.0000 C.ar    1  UNL1        0.0279
     27 C           3.3601   -1.5859    0.0000 C.ar    1  UNL1        0.1391
     28 C           8.3897    2.3399    0.0000 C.ar    1  UNL1        0.1390
     29 C           7.4876    2.8607    0.0000 C.ar    1  UNL1        0.0279
     30 C           5.2750   -3.6054    0.0000 C.ar    1  UNL1       -0.0504
     31 C           3.5775    0.1655    0.0000 C.2     1  UNL1        0.3430
     32 C           9.2418    0.7883    0.0000 C.2     1  UNL1        0.3429
     33 C           5.6376    2.8536    0.0000 C.ar    1  UNL1       -0.0504
     34 C           3.1422   -3.3997    0.0000 C.ar    1  UNL1       -0.0504
     35 C           7.4960    3.9457    0.0000 C.ar    1  UNL1       -0.0504
     36 C           4.6553   -4.4882    0.0000 C.ar    1  UNL1       -0.0611
     37 C           5.6209    3.9385    0.0000 C.ar    1  UNL1       -0.0611
     38 C           3.5817   -4.3847    0.0000 C.ar    1  UNL1       -0.0611
     39 C           6.5563    4.4882    0.0000 C.ar    1  UNL1       -0.0611
     40 C           2.1872    1.1985    0.0000 C.3     1  UNL1        0.0820
     41 C          10.9738    0.7683    0.0000 C.3     1  UNL1        0.0820
     42 H           8.1329    0.3255    0.0000 H       1  UNL1        0.0507
     43 H           4.9626    0.1362    0.0000 H       1  UNL1        0.0828
     44 H           6.3493   -2.1747    0.0000 H       1  UNL1        0.0269
     45 H           6.7212   -2.9688    0.0000 H       1  UNL1        0.0269
     46 H           7.5152   -2.5969    0.0000 H       1  UNL1        0.0269
     47 H           7.4831   -2.6032    0.0000 H       1  UNL1        0.0269
     48 H           8.3588   -2.6476    0.0000 H       1  UNL1        0.0269
     49 H           8.4032   -1.7719    0.0000 H       1  UNL1        0.0269
     50 H           5.8928   -3.6578    0.0000 H       1  UNL1        0.0625
     51 H           5.1068    2.5333    0.0000 H       1  UNL1        0.0625
     52 H           2.5258   -3.3331    0.0000 H       1  UNL1        0.0625
     53 H           8.0341    4.2536    0.0000 H       1  UNL1        0.0625
     54 H           4.9145   -5.0514    0.0000 H       1  UNL1        0.0618
     55 H           5.0804    4.2422    0.0000 H       1  UNL1        0.0618
     56 H           2.0000   -1.9789    0.0000 H       1  UNL1        0.2922
     57 H           3.2197   -4.8880    0.0000 H       1  UNL1        0.0618
     58 H           9.2600    3.4566    0.0000 H       1  UNL1        0.2922
     59 H           6.5540    5.1082    0.0000 H       1  UNL1        0.0618
     60 H           2.7563    1.4446    0.0000 H       1  UNL1        0.0661
     61 H           1.9412    1.7675    0.0000 H       1  UNL1        0.0661
     62 H           1.6182    0.9524    0.0000 H       1  UNL1        0.0661
     63 H          10.6576    0.2350    0.0000 H       1  UNL1        0.0661
     64 H          11.5071    0.4521    0.0000 H       1  UNL1        0.0661
     65 H          11.2900    1.3016    0.0000 H       1  UNL1        0.0661
@<TRIPOS>BOND
     1    11     1    1
     2     1    18    1
     3     2    12    1
     4     2    17    1
     5     3    14    1
     6     3    21    1
     7     4    17    2
     8     5    27    1
     9     5    56    1
    10     6    28    1
    11     6    58    1
    12     7    31    1
    13     7    40    1
    14     8    32    1
    15     8    41    1
    16     9    31    2
    17    10    32    2
    18    11    12    1
    19    11    13    1
    20    11    14    1
    21    12    19    1
    22    12    20    1
    23    13    16    1
    24    13    17    1
    25    13    42    1
    26    14    15    1
    27    14    43    1
    28    15    18   ar
    29    15    22   ar
    30    16    21   ar
    31    16    23   ar
    32    18    24   ar
    33    19    47    1
    34    19    48    1
    35    19    49    1
    36    20    44    1
    37    20    45    1
    38    20    46    1
    39    21    25   ar
    40    22    27   ar
    41    22    31    1
    42    23    28   ar
    43    23    32    1
    44    24    26   ar
    45    24    30   ar
    46    25    29   ar
    47    25    33   ar
    48    26    27   ar
    49    26    34   ar
    50    28    29   ar
    51    29    35   ar
    52    30    36   ar
    53    30    50    1
    54    33    37   ar
    55    33    51    1
    56    34    38   ar
    57    34    52    1
    58    35    39   ar
    59    35    53    1
    60    36    38   ar
    61    36    54    1
    62    37    39   ar
    63    37    55    1
    64    38    57    1
    65    39    59    1
    66    40    60    1
    67    40    61    1
    68    40    62    1
    69    41    63    1
    70    41    64    1
    71    41    65    1
