@<TRIPOS>MOLECULE
IMPHY006292
 24 25 0 0 0
SMALL
GASTEIGER

@<TRIPOS>ATOM
      1 O           6.4103    0.3647    0.0000 O.3     1  UNL1       -0.4526
      2 O           6.4103   -1.2447    0.0000 O.3     1  UNL1       -0.4525
      3 O           2.8660   -1.4400    0.0000 O.3     1  UNL1       -0.5059
      4 O           2.0000    0.0600    0.0000 O.2     1  UNL1       -0.2919
      5 C           3.7320    0.0600    0.0000 C.ar    1  UNL1        0.0624
      6 C           5.4641    0.0600    0.0000 C.ar    1  UNL1        0.1671
      7 C           5.4641   -0.9400    0.0000 C.ar    1  UNL1        0.1697
      8 C           4.5981    0.5600    0.0000 C.ar    1  UNL1       -0.0022
      9 C           3.7320   -0.9400    0.0000 C.ar    1  UNL1        0.1310
     10 C           4.5981   -1.4400    0.0000 C.ar    1  UNL1        0.0260
     11 C           2.8660    0.5600    0.0000 C.2     1  UNL1        0.1665
     12 C           2.8660    1.5600    0.0000 C.3     1  UNL1        0.0077
     13 C           6.9939   -0.4400    0.0000 C.3     1  UNL1        0.2332
     14 C           2.0000    2.0600    0.0000 C.3     1  UNL1       -0.0582
     15 H           4.5981    1.1800    0.0000 H       1  UNL1        0.0663
     16 H           4.5981   -2.0600    0.0000 H       1  UNL1        0.0692
     17 H           3.4766    1.4523    0.0000 H       1  UNL1        0.0342
     18 H           3.0781    2.1426    0.0000 H       1  UNL1        0.0342
     19 H           7.4548   -0.8547    0.0000 H       1  UNL1        0.1166
     20 H           7.4548   -0.0253    0.0000 H       1  UNL1        0.1166
     21 H           2.3100    2.5969    0.0000 H       1  UNL1        0.0234
     22 H           1.4631    2.3700    0.0000 H       1  UNL1        0.0234
     23 H           1.6900    1.5231    0.0000 H       1  UNL1        0.0234
     24 H           2.8660   -2.0600    0.0000 H       1  UNL1        0.2922
@<TRIPOS>BOND
     1     1     6    1
     2     1    13    1
     3     2     7    1
     4     2    13    1
     5     3     9    1
     6     3    24    1
     7     4    11    2
     8     5     8   ar
     9     5     9   ar
    10     5    11    1
    11     6     7   ar
    12     6     8   ar
    13     7    10   ar
    14     8    15    1
    15     9    10   ar
    16    10    16    1
    17    11    12    1
    18    12    14    1
    19    12    17    1
    20    12    18    1
    21    13    19    1
    22    13    20    1
    23    14    21    1
    24    14    22    1
    25    14    23    1
