@<TRIPOS>MOLECULE
IMPHY014568
 27 27 0 0 0
SMALL
GASTEIGER

@<TRIPOS>ATOM
      1 O           2.8090   -0.1807    0.0000 O.3     1  UNL1       -0.3680
      2 C           3.6180    0.4071    0.0000 C.3     1  UNL1        0.0833
      3 C           3.3090    1.3582    0.0000 C.2     1  UNL1       -0.0458
      4 C           4.5691    0.0981    0.0000 C.3     1  UNL1       -0.0043
      5 C           2.0000    0.4071    0.0000 C.3     1  UNL1        0.0669
      6 C           2.3090    1.3582    0.0000 C.2     1  UNL1       -0.0572
      7 C           4.7770   -0.8800    0.0000 C.2     1  UNL1       -0.0825
      8 C           3.8968    2.1672    0.0000 C.3     1  UNL1       -0.0413
      9 C           5.7281   -1.1890    0.0000 C.2     1  UNL1       -0.0795
     10 C           5.9360   -2.1672    0.0000 C.3     1  UNL1       -0.0440
     11 C           6.4712   -0.5199    0.0000 C.3     1  UNL1       -0.0440
     12 H           3.7150   -0.2052    0.0000 H       1  UNL1        0.0646
     13 H           5.1887    0.1197    0.0000 H       1  UNL1        0.0336
     14 H           4.6554    0.7121    0.0000 H       1  UNL1        0.0336
     15 H           1.4336    0.6593    0.0000 H       1  UNL1        0.0604
     16 H           1.6900   -0.1298    0.0000 H       1  UNL1        0.0604
     17 H           1.9446    1.8598    0.0000 H       1  UNL1        0.0595
     18 H           4.3162   -1.2949    0.0000 H       1  UNL1        0.0572
     19 H           4.3984    1.8028    0.0000 H       1  UNL1        0.0275
     20 H           4.2612    2.6688    0.0000 H       1  UNL1        0.0275
     21 H           3.3952    2.5316    0.0000 H       1  UNL1        0.0275
     22 H           5.3295   -2.2961    0.0000 H       1  UNL1        0.0274
     23 H           6.0649   -2.7736    0.0000 H       1  UNL1        0.0274
     24 H           6.5424   -2.0383    0.0000 H       1  UNL1        0.0274
     25 H           6.8861   -0.9807    0.0000 H       1  UNL1        0.0274
     26 H           6.9320   -0.1051    0.0000 H       1  UNL1        0.0274
     27 H           6.0563   -0.0592    0.0000 H       1  UNL1        0.0274
@<TRIPOS>BOND
     1     1     2    1
     2     1     5    1
     3     2     3    1
     4     2     4    1
     5     2    12    1
     6     3     6    2
     7     3     8    1
     8     4     7    1
     9     4    13    1
    10     4    14    1
    11     5     6    1
    12     5    15    1
    13     5    16    1
    14     6    17    1
    15     7     9    2
    16     7    18    1
    17     8    19    1
    18     8    20    1
    19     8    21    1
    20     9    10    1
    21     9    11    1
    22    10    22    1
    23    10    23    1
    24    10    24    1
    25    11    25    1
    26    11    26    1
    27    11    27    1
