@<TRIPOS>MOLECULE
IMPHY003423
 38 39 0 0 0
SMALL
GASTEIGER

@<TRIPOS>ATOM
      1 O           5.1350    0.1550    0.0000 O.3     1  UNL1       -0.3313
      2 O           6.8671    0.1550    0.0000 O.3     1  UNL1       -0.4605
      3 O           5.1350   -2.8450    0.0000 O.3     1  UNL1       -0.3864
      4 O           3.4030   -1.8450    0.0000 O.3     1  UNL1       -0.3865
      5 O           6.8671   -1.8450    0.0000 O.3     1  UNL1       -0.3829
      6 O           2.5369   -0.3450    0.0000 O.3     1  UNL1       -0.3924
      7 O           9.4651    1.6550    0.0000 O.3     1  UNL1       -0.3903
      8 C           5.1350   -1.8450    0.0000 C.3     1  UNL1        0.1152
      9 C           4.2690   -1.3450    0.0000 C.3     1  UNL1        0.1120
     10 C           6.0010   -1.3450    0.0000 C.3     1  UNL1        0.1454
     11 C           4.2690   -0.3450    0.0000 C.3     1  UNL1        0.1140
     12 C           6.0010   -0.3450    0.0000 C.3     1  UNL1        0.2308
     13 C           3.4030    0.1550    0.0000 C.3     1  UNL1        0.0731
     14 C           6.8671    1.1550    0.0000 C.ar    1  UNL1        0.1293
     15 C           7.7331    1.6550    0.0000 C.ar    1  UNL1        0.0196
     16 C           6.0010    1.6550    0.0000 C.ar    1  UNL1       -0.0195
     17 C           7.7331    2.6550    0.0000 C.ar    1  UNL1       -0.0529
     18 C           8.5991    1.1550    0.0000 C.3     1  UNL1        0.0727
     19 C           6.0010    2.6550    0.0000 C.ar    1  UNL1       -0.0583
     20 C           6.8671    3.1550    0.0000 C.ar    1  UNL1       -0.0612
     21 H           5.6720   -2.1550    0.0000 H       1  UNL1        0.0648
     22 H           4.2690   -1.9650    0.0000 H       1  UNL1        0.0647
     23 H           6.5380   -1.0350    0.0000 H       1  UNL1        0.0683
     24 H           4.2690    0.2750    0.0000 H       1  UNL1        0.0647
     25 H           6.0010    0.2750    0.0000 H       1  UNL1        0.1084
     26 H           3.8015    0.6299    0.0000 H       1  UNL1        0.0584
     27 H           3.0044    0.6299    0.0000 H       1  UNL1        0.0584
     28 H           4.5981   -3.1550    0.0000 H       1  UNL1        0.2100
     29 H           3.4030   -2.4650    0.0000 H       1  UNL1        0.2100
     30 H           6.8671   -2.4650    0.0000 H       1  UNL1        0.2102
     31 H           2.0000   -0.0350    0.0000 H       1  UNL1        0.2095
     32 H           5.4641    1.3450    0.0000 H       1  UNL1        0.0654
     33 H           8.2700    2.9650    0.0000 H       1  UNL1        0.0622
     34 H           8.2006    0.6801    0.0000 H       1  UNL1        0.0608
     35 H           8.9976    0.6801    0.0000 H       1  UNL1        0.0608
     36 H           5.4641    2.9650    0.0000 H       1  UNL1        0.0619
     37 H           6.8671    3.7750    0.0000 H       1  UNL1        0.0618
     38 H          10.0021    1.3450    0.0000 H       1  UNL1        0.2098
@<TRIPOS>BOND
     1     1    11    1
     2     1    12    1
     3    12     2    1
     4     2    14    1
     5     8     3    1
     6     3    28    1
     7     9     4    1
     8     4    29    1
     9    10     5    1
    10     5    30    1
    11     6    13    1
    12     6    31    1
    13     7    18    1
    14     7    38    1
    15     8     9    1
    16     8    10    1
    17     8    21    1
    18     9    11    1
    19     9    22    1
    20    10    12    1
    21    10    23    1
    22    11    13    1
    23    11    24    1
    24    12    25    1
    25    13    26    1
    26    13    27    1
    27    14    15   ar
    28    14    16   ar
    29    15    17   ar
    30    15    18    1
    31    16    19   ar
    32    16    32    1
    33    17    20   ar
    34    17    33    1
    35    18    34    1
    36    18    35    1
    37    19    20   ar
    38    19    36    1
    39    20    37    1
