@<TRIPOS>MOLECULE
IMPHY004770
 53 58 0 0 0
SMALL
GASTEIGER

@<TRIPOS>ATOM
      1 O           3.7881   -1.1148    0.0000 O.3     1  UNL1       -0.3359
      2 O           6.4144   -0.6490    0.0000 O.2     1  UNL1       -0.4548
      3 O           2.0182   -0.1112    0.0000 O.2     1  UNL1       -0.2856
      4 O           5.5422   -2.1458    0.0000 O.2     1  UNL1       -0.2889
      5 O           2.0024   -2.1595    0.0000 O.2     1  UNL1       -0.5033
      6 O           6.4028    2.4202    0.0000 O.2     1  UNL1       -0.2866
      7 O          10.1784   -0.7144    0.0000 O.3     1  UNL1       -0.4814
      8 O           8.2400    2.4633    0.0000 O.3     1  UNL1       -0.5058
      9 C           3.7884   -0.1144    0.0000 C.3     1  UNL1        0.1861
     10 C           4.6544   -0.6144    0.0000 C.3     1  UNL1        0.2262
     11 C           3.7884    0.8856    0.0000 C.3     1  UNL1        0.0240
     12 C           5.5204   -0.1144    0.0000 C.ar    1  UNL1        0.1553
     13 C           4.6544    1.3856    0.0000 C.3     1  UNL1       -0.0110
     14 C           2.8784   -0.6212    0.0000 C.2     1  UNL1        0.2330
     15 C           4.6704   -1.6559    0.0000 C.2     1  UNL1        0.2022
     16 C           5.5204    0.8856    0.0000 C.ar    1  UNL1        0.0422
     17 C           2.9223    1.3856    0.0000 C.2     1  UNL1       -0.0730
     18 C           2.8703   -1.6628    0.0000 C.2     1  UNL1        0.1658
     19 C           3.7724   -2.1836    0.0000 C.2     1  UNL1        0.0294
     20 C           6.4144    1.4203    0.0000 C.ar    1  UNL1        0.1996
     21 C           7.3204   -0.1352    0.0000 C.ar    1  UNL1        0.1531
     22 C           2.9223    2.3856    0.0000 C.3     1  UNL1       -0.0437
     23 C           7.3204    0.9064    0.0000 C.ar    1  UNL1        0.1063
     24 C           2.0563    0.8856    0.0000 C.2     1  UNL1       -0.0993
     25 C           8.2516   -0.6921    0.0000 C.ar    1  UNL1        0.0597
     26 C           8.2516    1.4634    0.0000 C.ar    1  UNL1        0.1347
     27 C           9.1954   -0.1569    0.0000 C.ar    1  UNL1        0.1359
     28 C           9.1954    0.9281    0.0000 C.ar    1  UNL1        0.0231
     29 C           8.2254   -1.8220    0.0000 C.2     1  UNL1       -0.0478
     30 C          10.1784   -1.8446    0.0000 C.3     1  UNL1        0.1235
     31 C           9.1954   -2.4021    0.0000 C.2     1  UNL1       -0.0408
     32 C          10.6751   -2.7125    0.0000 C.3     1  UNL1       -0.0215
     33 C          11.1784   -1.8484    0.0000 C.3     1  UNL1       -0.0215
     34 H           3.7884    1.5056    0.0000 H       1  UNL1        0.0382
     35 H           5.0529    1.8606    0.0000 H       1  UNL1        0.0322
     36 H           4.2559    1.8606    0.0000 H       1  UNL1        0.0322
     37 H           3.7748   -2.8036    0.0000 H       1  UNL1        0.0691
     38 H           3.5423    2.3856    0.0000 H       1  UNL1        0.0274
     39 H           2.9223    3.0056    0.0000 H       1  UNL1        0.0274
     40 H           2.3023    2.3856    0.0000 H       1  UNL1        0.0274
     41 H           1.5194    1.1956    0.0000 H       1  UNL1        0.0534
     42 H           2.0563    0.2656    0.0000 H       1  UNL1        0.0534
     43 H           2.0000   -2.7795    0.0000 H       1  UNL1        0.2923
     44 H           9.7311    1.2402    0.0000 H       1  UNL1        0.0691
     45 H           7.6826   -2.1216    0.0000 H       1  UNL1        0.0624
     46 H           9.1882   -3.0220    0.0000 H       1  UNL1        0.0611
     47 H           8.7733    2.7795    0.0000 H       1  UNL1        0.2922
     48 H          10.1370   -3.0204    0.0000 H       1  UNL1        0.0271
     49 H          10.9830   -3.2506    0.0000 H       1  UNL1        0.0271
     50 H          11.2132   -2.4046    0.0000 H       1  UNL1        0.0271
     51 H          11.1761   -2.4684    0.0000 H       1  UNL1        0.0271
     52 H          11.7984   -1.8508    0.0000 H       1  UNL1        0.0271
     53 H          11.1808   -1.2284    0.0000 H       1  UNL1        0.0271
@<TRIPOS>BOND
     1     1     9    1
     2     1    10    1
     3     2    12   ar
     4     2    21   ar
     5     3    14    2
     6     4    15    2
     7     5    18    1
     8     5    43    1
     9     6    20    2
    10     7    27    1
    11     7    30    1
    12     8    26    1
    13     8    47    1
    14     9    10    1
    15     9    11    1
    16     9    14    1
    17    10    12    1
    18    10    15    1
    19    11    13    1
    20    11    17    1
    21    11    34    1
    22    12    16   ar
    23    13    16    1
    24    13    35    1
    25    13    36    1
    26    14    18    1
    27    15    19    1
    28    16    20   ar
    29    17    22    1
    30    17    24    2
    31    18    19    2
    32    19    37    1
    33    20    23   ar
    34    21    23   ar
    35    21    25   ar
    36    22    38    1
    37    22    39    1
    38    22    40    1
    39    23    26   ar
    40    24    41    1
    41    24    42    1
    42    25    27   ar
    43    25    29    1
    44    26    28   ar
    45    27    28   ar
    46    28    44    1
    47    29    31    2
    48    29    45    1
    49    30    31    1
    50    30    32    1
    51    30    33    1
    52    31    46    1
    53    32    48    1
    54    32    49    1
    55    32    50    1
    56    33    51    1
    57    33    52    1
    58    33    53    1
