@<TRIPOS>MOLECULE
IMPHY016102
 33 32 0 0 0
SMALL
GASTEIGER

@<TRIPOS>ATOM
      1 O           5.4641    1.1900    0.0000 O.3     1  UNL1       -0.4605
      2 O           6.3301   -0.3100    0.0000 O.2     1  UNL1       -0.2508
      3 C           8.0622    0.6900    0.0000 C.3     1  UNL1       -0.0367
      4 C           7.1962    1.1900    0.0000 C.3     1  UNL1        0.0473
      5 C           8.9282    1.1900    0.0000 C.3     1  UNL1       -0.0622
      6 C           8.0622   -0.3100    0.0000 C.3     1  UNL1       -0.0622
      7 C           6.3301    0.6900    0.0000 C.2     1  UNL1        0.3076
      8 C           2.8660   -0.3100    0.0000 C.3     1  UNL1       -0.0349
      9 C           2.0000   -0.8100    0.0000 C.3     1  UNL1       -0.0525
     10 C           4.5981    0.6900    0.0000 C.3     1  UNL1        0.1107
     11 C           2.8660    0.6900    0.0000 C.2     1  UNL1       -0.0848
     12 C           3.7320    1.1900    0.0000 C.2     1  UNL1       -0.0510
     13 C           2.0000   -1.8100    0.0000 C.3     1  UNL1       -0.0650
     14 H           8.0622    1.3100    0.0000 H       1  UNL1        0.0301
     15 H           7.5947    1.6650    0.0000 H       1  UNL1        0.0380
     16 H           6.7976    1.6650    0.0000 H       1  UNL1        0.0380
     17 H           9.2382    0.6531    0.0000 H       1  UNL1        0.0232
     18 H           9.4651    1.5000    0.0000 H       1  UNL1        0.0232
     19 H           8.6182    1.7269    0.0000 H       1  UNL1        0.0232
     20 H           7.4422   -0.3100    0.0000 H       1  UNL1        0.0232
     21 H           8.0622   -0.9300    0.0000 H       1  UNL1        0.0232
     22 H           8.6822   -0.3100    0.0000 H       1  UNL1        0.0232
     23 H           3.0781   -0.8926    0.0000 H       1  UNL1        0.0307
     24 H           3.4766   -0.2023    0.0000 H       1  UNL1        0.0307
     25 H           1.7880   -0.2274    0.0000 H       1  UNL1        0.0266
     26 H           1.3894   -0.9177    0.0000 H       1  UNL1        0.0266
     27 H           4.1996    0.2151    0.0000 H       1  UNL1        0.0743
     28 H           4.9966    0.2151    0.0000 H       1  UNL1        0.0743
     29 H           2.3291    1.0000    0.0000 H       1  UNL1        0.0570
     30 H           3.7320    1.8100    0.0000 H       1  UNL1        0.0602
     31 H           1.3800   -1.8100    0.0000 H       1  UNL1        0.0230
     32 H           2.0000   -2.4300    0.0000 H       1  UNL1        0.0230
     33 H           2.6200   -1.8100    0.0000 H       1  UNL1        0.0230
@<TRIPOS>BOND
     1     1     7    1
     2     1    10    1
     3     2     7    2
     4     3     4    1
     5     3     5    1
     6     3     6    1
     7     3    14    1
     8     4     7    1
     9     4    15    1
    10     4    16    1
    11     5    17    1
    12     5    18    1
    13     5    19    1
    14     6    20    1
    15     6    21    1
    16     6    22    1
    17     8     9    1
    18     8    11    1
    19     8    23    1
    20     8    24    1
    21     9    13    1
    22     9    25    1
    23     9    26    1
    24    10    12    1
    25    10    27    1
    26    10    28    1
    27    11    12    2
    28    11    29    1
    29    12    30    1
    30    13    31    1
    31    13    32    1
    32    13    33    1
