@<TRIPOS>MOLECULE
IMPHY003115
 26 26 0 0 0
SMALL
GASTEIGER

@<TRIPOS>ATOM
      1 O           6.8671   -1.3100    0.0000 O.3     1  UNL1       -0.4914
      2 O           5.1350   -2.3100    0.0000 O.3     1  UNL1       -0.4914
      3 O           6.0010    2.1900    0.0000 O.3     1  UNL1       -0.4771
      4 O           2.5369    0.1900    0.0000 O.3     1  UNL1       -0.4771
      5 O           4.2690    2.1900    0.0000 O.2     1  UNL1       -0.2451
      6 O           3.4030    1.6900    0.0000 O.2     1  UNL1       -0.2451
      7 C           5.1350    0.6900    0.0000 C.ar    1  UNL1        0.0764
      8 C           4.2690    0.1900    0.0000 C.ar    1  UNL1        0.0764
      9 C           5.1350   -1.3100    0.0000 C.ar    1  UNL1        0.1623
     10 C           6.0010   -0.8100    0.0000 C.ar    1  UNL1        0.1623
     11 C           6.0010    0.1900    0.0000 C.ar    1  UNL1       -0.0015
     12 C           4.2690   -0.8100    0.0000 C.ar    1  UNL1       -0.0015
     13 C           3.4030    0.6900    0.0000 C.2     1  UNL1        0.3377
     14 C           5.1350    1.6900    0.0000 C.2     1  UNL1        0.3377
     15 C           7.7331   -0.8100    0.0000 C.3     1  UNL1        0.0790
     16 C           4.2690   -2.8100    0.0000 C.3     1  UNL1        0.0790
     17 H           3.7320   -1.1200    0.0000 H       1  UNL1        0.0664
     18 H           6.5380    0.5000    0.0000 H       1  UNL1        0.0664
     19 H           3.9590   -2.2731    0.0000 H       1  UNL1        0.0660
     20 H           8.0431   -1.3469    0.0000 H       1  UNL1        0.0660
     21 H           8.2700   -0.5000    0.0000 H       1  UNL1        0.0660
     22 H           7.4231   -0.2731    0.0000 H       1  UNL1        0.0660
     23 H           3.7320   -3.1200    0.0000 H       1  UNL1        0.0660
     24 H           4.5790   -3.3469    0.0000 H       1  UNL1        0.0660
     25 H           6.0010    2.8100    0.0000 H       1  UNL1        0.2954
     26 H           2.0000    0.5000    0.0000 H       1  UNL1        0.2954
@<TRIPOS>BOND
     1     1    10    1
     2     1    15    1
     3     2     9    1
     4     2    16    1
     5     3    14    1
     6     3    25    1
     7     4    13    1
     8     4    26    1
     9     5    14    2
    10     6    13    2
    11     7     8   ar
    12     7    11   ar
    13     7    14    1
    14     8    12   ar
    15     8    13    1
    16     9    10   ar
    17     9    12   ar
    18    10    11   ar
    19    11    18    1
    20    12    17    1
    21    15    20    1
    22    15    21    1
    23    15    22    1
    24    16    19    1
    25    16    23    1
    26    16    24    1
