@<TRIPOS>MOLECULE
IMPHY006247
 34 35 0 0 0
SMALL
GASTEIGER

@<TRIPOS>ATOM
      1 O           2.8660   -0.9050    0.0000 O.3     1  UNL1       -0.4944
      2 O           4.5981   -3.9050    0.0000 O.3     1  UNL1       -0.5066
      3 O           4.5981    2.0950    0.0000 O.2     1  UNL1       -0.2873
      4 O           8.9282    3.5950    0.0000 O.3     1  UNL1       -0.5068
      5 C           4.5981   -0.9050    0.0000 C.ar    1  UNL1        0.0170
      6 C           3.7320   -1.4050    0.0000 C.ar    1  UNL1        0.1307
      7 C           5.4641   -1.4050    0.0000 C.ar    1  UNL1       -0.0477
      8 C           4.5981    0.0950    0.0000 C.2     1  UNL1       -0.0475
      9 C           6.3301    2.0950    0.0000 C.ar    1  UNL1        0.0219
     10 C           3.7320   -2.4050    0.0000 C.ar    1  UNL1        0.0221
     11 C           4.5981   -2.9050    0.0000 C.ar    1  UNL1        0.1204
     12 C           5.4641   -2.4050    0.0000 C.ar    1  UNL1       -0.0194
     13 C           5.4641    0.5950    0.0000 C.2     1  UNL1       -0.0137
     14 C           5.4641    1.5950    0.0000 C.2     1  UNL1        0.1861
     15 C           7.1962    1.5950    0.0000 C.ar    1  UNL1       -0.0475
     16 C           6.3301    3.0950    0.0000 C.ar    1  UNL1       -0.0475
     17 C           8.0622    2.0950    0.0000 C.ar    1  UNL1       -0.0195
     18 C           7.1962    3.5950    0.0000 C.ar    1  UNL1       -0.0195
     19 C           8.0622    3.0950    0.0000 C.ar    1  UNL1        0.1169
     20 C           2.0000   -1.4050    0.0000 C.3     1  UNL1        0.0788
     21 H           6.0010   -1.0950    0.0000 H       1  UNL1        0.0626
     22 H           4.0611    0.4050    0.0000 H       1  UNL1        0.0626
     23 H           3.1951   -2.7150    0.0000 H       1  UNL1        0.0691
     24 H           6.0010   -2.7150    0.0000 H       1  UNL1        0.0654
     25 H           6.0010    0.2850    0.0000 H       1  UNL1        0.0656
     26 H           7.1962    0.9750    0.0000 H       1  UNL1        0.0626
     27 H           5.7932    3.4050    0.0000 H       1  UNL1        0.0626
     28 H           8.5991    1.7850    0.0000 H       1  UNL1        0.0654
     29 H           7.1962    4.2150    0.0000 H       1  UNL1        0.0654
     30 H           1.6900   -0.8681    0.0000 H       1  UNL1        0.0660
     31 H           1.4631   -1.7150    0.0000 H       1  UNL1        0.0660
     32 H           2.3100   -1.9419    0.0000 H       1  UNL1        0.0660
     33 H           5.1350   -4.2150    0.0000 H       1  UNL1        0.2921
     34 H           8.9282    4.2150    0.0000 H       1  UNL1        0.2921
@<TRIPOS>BOND
     1     1     6    1
     2     1    20    1
     3     2    11    1
     4     2    33    1
     5     3    14    2
     6     4    19    1
     7     4    34    1
     8     5     6   ar
     9     5     7   ar
    10     5     8    1
    11     6    10   ar
    12     7    12   ar
    13     7    21    1
    14     8    13    2
    15     8    22    1
    16     9    14    1
    17     9    15   ar
    18     9    16   ar
    19    10    11   ar
    20    10    23    1
    21    11    12   ar
    22    12    24    1
    23    13    14    1
    24    13    25    1
    25    15    17   ar
    26    15    26    1
    27    16    18   ar
    28    16    27    1
    29    17    19   ar
    30    17    28    1
    31    18    19   ar
    32    18    29    1
    33    20    30    1
    34    20    31    1
    35    20    32    1
