@<TRIPOS>MOLECULE
IMPHY001673
 54 57 0 0 0
SMALL
GASTEIGER

@<TRIPOS>ATOM
      1 O          12.4803    1.9147    0.0000 O.3     1  UNL1       -0.4816
      2 O           8.0901   -1.6889    0.0000 O.2     1  UNL1       -0.4618
      3 O           6.3301    1.3458    0.0000 O.3     1  UNL1       -0.5055
      4 O           8.0785    1.3804    0.0000 O.2     1  UNL1       -0.2863
      5 O           4.5981   -1.6542    0.0000 O.3     1  UNL1       -0.5062
      6 C          13.3884    1.4044    0.0000 C.3     1  UNL1        0.1235
      7 C          11.5923    0.3766    0.0000 C.ar    1  UNL1        0.0171
      8 C          11.5884    1.3766    0.0000 C.ar    1  UNL1        0.1289
      9 C          13.3924    0.3627    0.0000 C.2     1  UNL1       -0.0409
     10 C           9.8602    0.3699    0.0000 C.ar    1  UNL1       -0.0105
     11 C          14.3883    1.4121    0.0000 C.3     1  UNL1       -0.0215
     12 C          13.8817    2.2742    0.0000 C.3     1  UNL1       -0.0215
     13 C          12.4883   -0.1546    0.0000 C.2     1  UNL1       -0.0513
     14 C          10.7282   -0.1267    0.0000 C.ar    1  UNL1       -0.0432
     15 C           8.9962   -0.1334    0.0000 C.ar    1  UNL1        0.0644
     16 C           7.1962   -0.1542    0.0000 C.ar    1  UNL1        0.1063
     17 C          10.7205    1.8733    0.0000 C.ar    1  UNL1       -0.0187
     18 C           9.8564    1.3699    0.0000 C.ar    1  UNL1       -0.0503
     19 C           8.0901    0.3804    0.0000 C.ar    1  UNL1        0.2037
     20 C           5.4641   -0.1542    0.0000 C.ar    1  UNL1        0.0400
     21 C           7.1962   -1.1542    0.0000 C.ar    1  UNL1        0.1454
     22 C           6.3301    0.3458    0.0000 C.ar    1  UNL1        0.1381
     23 C           4.5981    0.3458    0.0000 C.3     1  UNL1       -0.0023
     24 C           5.4641   -1.1542    0.0000 C.ar    1  UNL1        0.1273
     25 C           8.9962   -1.1750    0.0000 C.ar    1  UNL1        0.1038
     26 C           6.3301   -1.6542    0.0000 C.ar    1  UNL1        0.0234
     27 C           3.7320   -0.1542    0.0000 C.2     1  UNL1       -0.0807
     28 C           2.8660    0.3458    0.0000 C.2     1  UNL1       -0.0793
     29 C           2.0000   -0.1542    0.0000 C.3     1  UNL1       -0.0440
     30 C           2.8660    1.3458    0.0000 C.3     1  UNL1       -0.0440
     31 H          13.9293    0.0527    0.0000 H       1  UNL1        0.0611
     32 H          14.4210    1.9684    0.0000 H       1  UNL1        0.0271
     33 H          14.3931    0.7921    0.0000 H       1  UNL1        0.0271
     34 H          15.0083    1.4168    0.0000 H       1  UNL1        0.0271
     35 H          14.3835    2.0320    0.0000 H       1  UNL1        0.0271
     36 H          14.1875    2.8135    0.0000 H       1  UNL1        0.0271
     37 H          13.3424    2.5801    0.0000 H       1  UNL1        0.0271
     38 H          12.4835   -0.7746    0.0000 H       1  UNL1        0.0623
     39 H          10.7306   -0.7467    0.0000 H       1  UNL1        0.0631
     40 H          10.7181    2.4933    0.0000 H       1  UNL1        0.0654
     41 H           9.3183    1.6779    0.0000 H       1  UNL1        0.0625
     42 H           4.9966    0.8207    0.0000 H       1  UNL1        0.0358
     43 H           4.1996    0.8207    0.0000 H       1  UNL1        0.0358
     44 H           9.5319   -1.4871    0.0000 H       1  UNL1        0.1037
     45 H           6.3301   -2.2742    0.0000 H       1  UNL1        0.0691
     46 H           3.7320   -0.7742    0.0000 H       1  UNL1        0.0575
     47 H           5.7932    1.6558    0.0000 H       1  UNL1        0.2922
     48 H           4.5981   -2.2742    0.0000 H       1  UNL1        0.2921
     49 H           1.6900    0.3827    0.0000 H       1  UNL1        0.0274
     50 H           3.4860    1.3458    0.0000 H       1  UNL1        0.0274
     51 H           2.8660    1.9658    0.0000 H       1  UNL1        0.0274
     52 H           2.2460    1.3458    0.0000 H       1  UNL1        0.0274
     53 H           1.4631   -0.4642    0.0000 H       1  UNL1        0.0274
     54 H           2.3100   -0.6911    0.0000 H       1  UNL1        0.0274
@<TRIPOS>BOND
     1     1     6    1
     2     1     8    1
     3     2    21   ar
     4     2    25   ar
     5     3    22    1
     6     3    47    1
     7     4    19    2
     8     5    24    1
     9     5    48    1
    10     6     9    1
    11     6    11    1
    12     6    12    1
    13     7     8   ar
    14     7    13    1
    15     7    14   ar
    16     8    17   ar
    17     9    13    2
    18     9    31    1
    19    10    14   ar
    20    10    15    1
    21    10    18   ar
    22    11    33    1
    23    11    34    1
    24    11    35    1
    25    12    32    1
    26    12    36    1
    27    12    37    1
    28    13    38    1
    29    14    39    1
    30    15    19   ar
    31    15    25   ar
    32    16    19   ar
    33    16    21   ar
    34    16    22   ar
    35    17    18   ar
    36    17    40    1
    37    18    41    1
    38    20    22   ar
    39    20    23    1
    40    20    24   ar
    41    21    26   ar
    42    23    27    1
    43    23    42    1
    44    23    43    1
    45    24    26   ar
    46    25    44    1
    47    26    45    1
    48    27    28    2
    49    27    46    1
    50    28    29    1
    51    28    30    1
    52    29    49    1
    53    29    53    1
    54    29    54    1
    55    30    50    1
    56    30    51    1
    57    30    52    1
