@<TRIPOS>MOLECULE
IMPHY016557
 42 44 0 0 0
SMALL
GASTEIGER

@<TRIPOS>ATOM
      1 O           4.8594    2.4717    0.0000 O.3     1  UNL1       -0.3730
      2 C           5.4575   -0.4929    0.0000 C.3     1  UNL1       -0.0065
      3 C           6.4423   -0.3192    0.0000 C.3     1  UNL1       -0.0322
      4 C           5.6285   -1.4866    0.0000 C.3     1  UNL1       -0.0292
      5 C           6.6214   -1.3115    0.0000 C.3     1  UNL1       -0.0441
      6 C           4.3817    0.5232    0.0000 C.3     1  UNL1        0.0628
      7 C           6.7843    0.6205    0.0000 C.3     1  UNL1       -0.0383
      8 C           6.1415    1.3865    0.0000 C.3     1  UNL1       -0.0237
      9 C           4.1228    1.4891    0.0000 C.3     1  UNL1        0.0596
     10 C           3.1100   -0.2715    0.0000 C.3     1  UNL1       -0.0236
     11 C           5.8001   -2.4717    0.0000 C.3     1  UNL1       -0.0595
     12 C           4.6433   -1.6582    0.0000 C.3     1  UNL1       -0.0595
     13 C           2.3328    0.3579    0.0000 C.3     1  UNL1       -0.0392
     14 C           2.6912    1.2914    0.0000 C.3     1  UNL1       -0.0239
     15 C           7.7691    0.7941    0.0000 C.3     1  UNL1       -0.0621
     16 C           1.3669    0.0990    0.0000 C.3     1  UNL1       -0.0623
     17 H           4.9110   -0.7859    0.0000 H       1  UNL1        0.0334
     18 H           7.0600   -0.3720    0.0000 H       1  UNL1        0.0307
     19 H           7.2317   -1.2021    0.0000 H       1  UNL1        0.0273
     20 H           6.7299   -1.9219    0.0000 H       1  UNL1        0.0273
     21 H           4.6017   -0.2979    0.0000 H       1  UNL1        0.0599
     22 H           7.1828    0.1455    0.0000 H       1  UNL1        0.0302
     23 H           6.0190    1.9943    0.0000 H       1  UNL1        0.0293
     24 H           6.7002    1.6554    0.0000 H       1  UNL1        0.0293
     25 H           3.9028    2.3101    0.0000 H       1  UNL1        0.0596
     26 H           3.4945   -0.7578    0.0000 H       1  UNL1        0.0293
     27 H           2.6690   -0.7073    0.0000 H       1  UNL1        0.0293
     28 H           6.4109   -2.3653    0.0000 H       1  UNL1        0.0235
     29 H           5.9065   -3.0825    0.0000 H       1  UNL1        0.0235
     30 H           5.1893   -2.5781    0.0000 H       1  UNL1        0.0235
     31 H           4.7497   -2.2690    0.0000 H       1  UNL1        0.0235
     32 H           4.0325   -1.7646    0.0000 H       1  UNL1        0.0235
     33 H           4.5369   -1.0474    0.0000 H       1  UNL1        0.0235
     34 H           2.2039   -0.2486    0.0000 H       1  UNL1        0.0300
     35 H           2.0834    1.4138    0.0000 H       1  UNL1        0.0293
     36 H           2.7102    1.9111    0.0000 H       1  UNL1        0.0293
     37 H           7.6614    1.4047    0.0000 H       1  UNL1        0.0233
     38 H           8.3797    0.9018    0.0000 H       1  UNL1        0.0233
     39 H           7.8768    0.1835    0.0000 H       1  UNL1        0.0233
     40 H           1.5274   -0.4998    0.0000 H       1  UNL1        0.0232
     41 H           0.7680   -0.0614    0.0000 H       1  UNL1        0.0232
     42 H           1.2064    0.6979    0.0000 H       1  UNL1        0.0232
@<TRIPOS>BOND
     1     1     6    1
     2     1     9    1
     3     2     3    1
     4     2     4    1
     5     2     6    1
     6     2    17    1
     7     3     5    1
     8     3     7    1
     9     3    18    1
    10     4     5    1
    11     4    11    1
    12     4    12    1
    13     5    19    1
    14     5    20    1
    15     6    10    1
    16     6    21    1
    17     7     8    1
    18     7    15    1
    19     7    22    1
    20     8     9    1
    21     8    23    1
    22     8    24    1
    23     9    14    1
    24     9    25    1
    25    10    13    1
    26    10    26    1
    27    10    27    1
    28    11    28    1
    29    11    29    1
    30    11    30    1
    31    12    31    1
    32    12    32    1
    33    12    33    1
    34    13    14    1
    35    13    16    1
    36    13    34    1
    37    14    35    1
    38    14    36    1
    39    15    37    1
    40    15    38    1
    41    15    39    1
    42    16    40    1
    43    16    41    1
    44    16    42    1
