@<TRIPOS>MOLECULE
IMPHY016950
 18 19 0 0 0
SMALL
GASTEIGER

@<TRIPOS>ATOM
      1 O           5.6137   -1.6617    0.0000 O.2     1  UNL1       -0.2971
      2 C           3.9735    0.6791    0.0000 C.3     1  UNL1       -0.0337
      3 C           3.7147   -0.2868    0.0000 C.3     1  UNL1        0.0178
      4 C           3.2369    1.6617    0.0000 C.3     1  UNL1       -0.0403
      5 C           2.0000    0.0608    0.0000 C.3     1  UNL1       -0.0492
      6 C           2.3420   -0.8789    0.0000 C.3     1  UNL1       -0.0432
      7 C           5.3725    0.1703    0.0000 C.3     1  UNL1        0.0089
      8 C           5.1137   -0.7957    0.0000 C.2     1  UNL1        0.1367
      9 H           3.9595    0.0592    0.0000 H       1  UNL1        0.0305
     10 H           3.7328   -0.9066    0.0000 H       1  UNL1        0.0377
     11 H           3.5547    2.1940    0.0000 H       1  UNL1        0.0275
     12 H           2.6238    1.7536    0.0000 H       1  UNL1        0.0275
     13 H           1.8057    0.6496    0.0000 H       1  UNL1        0.0268
     14 H           1.4142   -0.1424    0.0000 H       1  UNL1        0.0268
     15 H           1.7636   -1.1022    0.0000 H       1  UNL1        0.0272
     16 H           2.5765   -1.4528    0.0000 H       1  UNL1        0.0272
     17 H           5.9664   -0.0075    0.0000 H       1  UNL1        0.0344
     18 H           5.5674    0.7588    0.0000 H       1  UNL1        0.0344
@<TRIPOS>BOND
     1     1     8    2
     2     2     4    1
     3     2     5    1
     4     2     7    1
     5     2     9    1
     6     3     4    1
     7     3     6    1
     8     3     8    1
     9     3    10    1
    10     4    11    1
    11     4    12    1
    12     5     6    1
    13     5    13    1
    14     5    14    1
    15     6    15    1
    16     6    16    1
    17     7     8    1
    18     7    17    1
    19     7    18    1
