@<TRIPOS>MOLECULE
IMPHY005640
 95 100 0 0 0
SMALL
GASTEIGER

@<TRIPOS>ATOM
      1 O           7.7662    1.7624    0.0000 O.3     1  UNL1       -0.3876
      2 O           7.7207    4.7032    0.0000 O.3     1  UNL1       -0.4608
      3 O           6.0010   -3.4411    0.0000 O.3     1  UNL1       -0.3445
      4 O           4.1621    5.2761    0.0000 O.3     1  UNL1       -0.4571
      5 O           4.2690   -3.4411    0.0000 O.3     1  UNL1       -0.3421
      6 O           9.2241    3.8429    0.0000 O.2     1  UNL1       -0.2512
      7 O           4.7972    6.9411    0.0000 O.2     1  UNL1       -0.2456
      8 O           6.0010   -5.4411    0.0000 O.3     1  UNL1       -0.4537
      9 O           4.2690   -6.4411    0.0000 O.3     1  UNL1       -0.3733
     10 O           2.5369   -5.4411    0.0000 O.3     1  UNL1       -0.3865
     11 O           5.1350   -6.9411    0.0000 O.2     1  UNL1       -0.2512
     12 C           6.8982    2.2591    0.0000 C.3     1  UNL1        0.0785
     13 C           6.9021    1.2591    0.0000 C.3     1  UNL1       -0.0081
     14 C           6.0303    2.7558    0.0000 C.3     1  UNL1        0.0071
     15 C           6.0380    0.7558    0.0000 C.3     1  UNL1       -0.0299
     16 C           6.0260   -0.2858    0.0000 C.3     1  UNL1       -0.0259
     17 C           6.9260   -0.8101    0.0000 C.3     1  UNL1       -0.0330
     18 C           6.2358    3.7284    0.0000 C.3     1  UNL1        0.0290
     19 C           5.1662    2.2524    0.0000 C.3     1  UNL1       -0.0441
     20 C           5.1701    1.2524    0.0000 C.3     1  UNL1       -0.0488
     21 C           7.6327    2.9290    0.0000 C.3     1  UNL1        0.0147
     22 C           7.8140    0.7558    0.0000 C.3     1  UNL1       -0.0470
     23 C           7.2241    3.8352    0.0000 C.3     1  UNL1        0.1128
     24 C           7.8261   -0.2858    0.0000 C.3     1  UNL1       -0.0493
     25 C           5.0761   -0.8101    0.0000 C.3     1  UNL1       -0.0448
     26 C           5.1624    3.2524    0.0000 C.3     1  UNL1       -0.0563
     27 C           6.9386   -1.8950    0.0000 C.3     1  UNL1       -0.0232
     28 C           5.1619    0.2175    0.0000 C.3     1  UNL1       -0.0590
     29 C           5.0635   -1.8950    0.0000 C.3     1  UNL1       -0.0260
     30 C           6.0010   -2.4411    0.0000 C.3     1  UNL1        0.0621
     31 C           5.5650    4.4701    0.0000 C.2     1  UNL1       -0.0187
     32 C           4.5708    4.3634    0.0000 C.3     1  UNL1        0.1148
     33 C           5.7709    5.4487    0.0000 C.2     1  UNL1        0.0253
     34 C           8.7207    4.7070    0.0000 C.2     1  UNL1        0.3042
     35 C           5.1350   -3.9411    0.0000 C.3     1  UNL1        0.1994
     36 C           4.9038    5.9468    0.0000 C.2     1  UNL1        0.3323
     37 C           5.1350   -4.9411    0.0000 C.3     1  UNL1        0.1818
     38 C           9.2174    5.5750    0.0000 C.3     1  UNL1        0.0332
     39 C           4.2690   -5.4411    0.0000 C.3     1  UNL1        0.1281
     40 C           3.4030   -3.9411    0.0000 C.3     1  UNL1        0.0874
     41 C           3.4030   -4.9411    0.0000 C.3     1  UNL1        0.1108
     42 C           2.5369   -3.4411    0.0000 C.3     1  UNL1       -0.0361
     43 C           6.0010   -6.4411    0.0000 C.2     1  UNL1        0.3044
     44 C           3.4030   -6.9411    0.0000 C.3     1  UNL1        0.0371
     45 C           6.8671   -6.9411    0.0000 C.3     1  UNL1        0.0332
     46 H           7.4354    1.5753    0.0000 H       1  UNL1        0.0331
     47 H           6.5737    0.4437    0.0000 H       1  UNL1        0.0310
     48 H           7.4653   -1.1159    0.0000 H       1  UNL1        0.0307
     49 H           6.4565    4.3078    0.0000 H       1  UNL1        0.0389
     50 H           4.9519    2.8342    0.0000 H       1  UNL1        0.0272
     51 H           4.5560    2.1424    0.0000 H       1  UNL1        0.0272
     52 H           4.5591    1.3577    0.0000 H       1  UNL1        0.0268
     53 H           4.9602    0.6690    0.0000 H       1  UNL1        0.0268
     54 H           8.0000    2.4296    0.0000 H       1  UNL1        0.0329
     55 H           8.1680    3.2418    0.0000 H       1  UNL1        0.0329
     56 H           8.4261    0.6567    0.0000 H       1  UNL1        0.0269
     57 H           8.0163    1.3418    0.0000 H       1  UNL1        0.0269
     58 H           6.8846    4.3540    0.0000 H       1  UNL1        0.0741
     59 H           8.0419   -0.8670    0.0000 H       1  UNL1        0.0268
     60 H           8.4357   -0.1727    0.0000 H       1  UNL1        0.0268
     61 H           4.8738   -0.2240    0.0000 H       1  UNL1        0.0271
     62 H           4.4640   -0.9091    0.0000 H       1  UNL1        0.0271
     63 H           5.4703    3.7905    0.0000 H       1  UNL1        0.0236
     64 H           4.6242    3.5603    0.0000 H       1  UNL1        0.0236
     65 H           4.8544    2.7143    0.0000 H       1  UNL1        0.0236
     66 H           7.1544   -2.4762    0.0000 H       1  UNL1        0.0293
     67 H           7.5482   -1.7819    0.0000 H       1  UNL1        0.0293
     68 H           5.4739    0.7533    0.0000 H       1  UNL1        0.0235
     69 H           4.6261    0.5296    0.0000 H       1  UNL1        0.0235
     70 H           4.8498   -0.3182    0.0000 H       1  UNL1        0.0235
     71 H           4.4539   -1.7819    0.0000 H       1  UNL1        0.0290
     72 H           4.8477   -2.4762    0.0000 H       1  UNL1        0.0290
     73 H           6.5386   -2.7501    0.0000 H       1  UNL1        0.0597
     74 H           8.3019    2.0745    0.0000 H       1  UNL1        0.2102
     75 H           3.9815    4.1706    0.0000 H       1  UNL1        0.0746
     76 H           4.7009    3.7573    0.0000 H       1  UNL1        0.0746
     77 H           6.3367    5.7020    0.0000 H       1  UNL1        0.0690
     78 H           5.1350   -3.3211    0.0000 H       1  UNL1        0.0949
     79 H           5.1350   -5.5611    0.0000 H       1  UNL1        0.0813
     80 H           9.7555    5.2670    0.0000 H       1  UNL1        0.0342
     81 H           9.5253    6.1131    0.0000 H       1  UNL1        0.0342
     82 H           8.6792    5.8829    0.0000 H       1  UNL1        0.0342
     83 H           3.7320   -5.7511    0.0000 H       1  UNL1        0.0662
     84 H           3.4030   -3.3211    0.0000 H       1  UNL1        0.0621
     85 H           2.8660   -4.6311    0.0000 H       1  UNL1        0.0646
     86 H           2.8469   -2.9042    0.0000 H       1  UNL1        0.0255
     87 H           2.0000   -3.1311    0.0000 H       1  UNL1        0.0255
     88 H           2.2269   -3.9781    0.0000 H       1  UNL1        0.0255
     89 H           2.0000   -5.1311    0.0000 H       1  UNL1        0.2100
     90 H           3.0930   -6.4042    0.0000 H       1  UNL1        0.0524
     91 H           2.8660   -7.2511    0.0000 H       1  UNL1        0.0524
     92 H           3.7130   -7.4781    0.0000 H       1  UNL1        0.0524
     93 H           6.5571   -7.4781    0.0000 H       1  UNL1        0.0342
     94 H           7.4040   -7.2511    0.0000 H       1  UNL1        0.0342
     95 H           7.1771   -6.4042    0.0000 H       1  UNL1        0.0342
@<TRIPOS>BOND
     1     1    12    1
     2     1    74    1
     3     2    23    1
     4     2    34    1
     5     3    30    1
     6     3    35    1
     7     4    32    1
     8     4    36    1
     9     5    35    1
    10     5    40    1
    11     6    34    2
    12     7    36    2
    13     8    37    1
    14     8    43    1
    15     9    39    1
    16     9    44    1
    17    10    41    1
    18    10    89    1
    19    11    43    2
    20    12    13    1
    21    12    14    1
    22    12    21    1
    23    13    15    1
    24    13    22    1
    25    13    46    1
    26    14    18    1
    27    14    19    1
    28    14    26    1
    29    15    16    1
    30    15    20    1
    31    15    47    1
    32    16    17    1
    33    16    25    1
    34    16    28    1
    35    17    24    1
    36    17    27    1
    37    17    48    1
    38    18    23    1
    39    18    31    1
    40    18    49    1
    41    19    20    1
    42    19    50    1
    43    19    51    1
    44    20    52    1
    45    20    53    1
    46    21    23    1
    47    21    54    1
    48    21    55    1
    49    22    24    1
    50    22    56    1
    51    22    57    1
    52    23    58    1
    53    24    59    1
    54    24    60    1
    55    25    29    1
    56    25    61    1
    57    25    62    1
    58    26    63    1
    59    26    64    1
    60    26    65    1
    61    27    30    1
    62    27    66    1
    63    27    67    1
    64    28    68    1
    65    28    69    1
    66    28    70    1
    67    29    30    1
    68    29    71    1
    69    29    72    1
    70    30    73    1
    71    31    32    1
    72    31    33    2
    73    32    75    1
    74    32    76    1
    75    33    36    1
    76    33    77    1
    77    34    38    1
    78    35    37    1
    79    35    78    1
    80    37    39    1
    81    37    79    1
    82    38    80    1
    83    38    81    1
    84    38    82    1
    85    39    41    1
    86    39    83    1
    87    40    41    1
    88    40    42    1
    89    40    84    1
    90    41    85    1
    91    42    86    1
    92    42    87    1
    93    42    88    1
    94    43    45    1
    95    44    90    1
    96    44    91    1
    97    44    92    1
    98    45    93    1
    99    45    94    1
   100    45    95    1
