@<TRIPOS>MOLECULE
IMPHY010992
 17 19 0 0 0
SMALL
GASTEIGER

@<TRIPOS>ATOM
      1 O           4.3009    1.2033    0.0000 O.3     1  UNL1       -0.3636
      2 C           3.8000   -0.2210    0.0000 C.3     1  UNL1        0.0061
      3 C           3.8000   -1.2210    0.0000 C.3     1  UNL1       -0.0012
      4 C           2.9061    0.3136    0.0000 C.3     1  UNL1        0.0235
      5 C           4.6660    0.2790    0.0000 C.3     1  UNL1        0.0892
      6 C           3.3073    1.2229    0.0000 C.3     1  UNL1        0.0924
      7 C           2.9061   -1.7557    0.0000 C.3     1  UNL1       -0.0002
      8 C           4.6660   -1.7210    0.0000 C.3     1  UNL1       -0.0001
      9 C           2.0000   -0.2002    0.0000 C.3     1  UNL1        0.0021
     10 C           5.5321   -0.2210    0.0000 C.3     1  UNL1        0.0269
     11 C           2.0000   -1.2418    0.0000 C.3     1  UNL1        0.0001
     12 C           5.5321   -1.2210    0.0000 C.3     1  UNL1        0.0024
     13 C           3.8000   -2.2210    0.0000 C.3     1  UNL1       -0.0002
     14 C           5.5321    0.7790    0.0000 C.3     1  UNL1        0.0293
     15 C           3.3678    2.2210    0.0000 C.3     1  UNL1        0.0296
     16 C           2.3767    1.5889    0.0000 C.3     1  UNL1        0.0296
     17 H           3.1072   -0.6210    0.0000 H       1  UNL1        0.0342
@<TRIPOS>BOND
     1     1     5    1
     2     1     6    1
     3     2     3    1
     4     2     4    1
     5     2     5    1
     6     2    17    1
     7     3     7    1
     8     3     8    1
     9     3    13    1
    10     4     6    1
    11     4     9    1
    12     5    10    1
    13     5    14    1
    14     6    15    1
    15     6    16    1
    16     7    11    1
    17     8    12    1
    18     9    11    1
    19    10    12    1
