@<TRIPOS>MOLECULE
IMPHY015636
 45 44 0 0 0
SMALL
GASTEIGER

@<TRIPOS>ATOM
      1 O           7.1962    0.4400    0.0000 O.3     1  UNL1       -0.4643
      2 O           8.0622   -1.0600    0.0000 O.2     1  UNL1       -0.2509
      3 C          11.5263   -0.0600    0.0000 C.3     1  UNL1       -0.0530
      4 C          12.3923    0.4400    0.0000 C.3     1  UNL1       -0.0531
      5 C          10.6603    0.4400    0.0000 C.3     1  UNL1       -0.0526
      6 C          13.2583   -0.0600    0.0000 C.3     1  UNL1       -0.0533
      7 C           9.7942   -0.0600    0.0000 C.3     1  UNL1       -0.0430
      8 C          14.1244    0.4400    0.0000 C.3     1  UNL1       -0.0559
      9 C           8.9282    0.4400    0.0000 C.3     1  UNL1        0.0449
     10 C          14.9904   -0.0600    0.0000 C.3     1  UNL1       -0.0653
     11 C           8.0622   -0.0600    0.0000 C.2     1  UNL1        0.3071
     12 C           6.3301   -0.0600    0.0000 C.3     1  UNL1        0.0959
     13 C           5.4641    0.4400    0.0000 C.3     1  UNL1       -0.0003
     14 C           4.5981   -0.0600    0.0000 C.2     1  UNL1       -0.0847
     15 C           3.7320    0.4400    0.0000 C.2     1  UNL1       -0.0881
     16 C           2.8660   -0.0600    0.0000 C.3     1  UNL1       -0.0376
     17 C           2.0000    0.4400    0.0000 C.3     1  UNL1       -0.0618
     18 H          11.1278   -0.5349    0.0000 H       1  UNL1        0.0265
     19 H          11.9248   -0.5349    0.0000 H       1  UNL1        0.0265
     20 H          12.7908    0.9149    0.0000 H       1  UNL1        0.0265
     21 H          11.9938    0.9149    0.0000 H       1  UNL1        0.0265
     22 H          11.0588    0.9149    0.0000 H       1  UNL1        0.0265
     23 H          10.2617    0.9149    0.0000 H       1  UNL1        0.0265
     24 H          12.8598   -0.5349    0.0000 H       1  UNL1        0.0265
     25 H          13.6569   -0.5349    0.0000 H       1  UNL1        0.0265
     26 H           9.3957   -0.5349    0.0000 H       1  UNL1        0.0270
     27 H          10.1928   -0.5349    0.0000 H       1  UNL1        0.0270
     28 H          14.5229    0.9149    0.0000 H       1  UNL1        0.0263
     29 H          13.7258    0.9149    0.0000 H       1  UNL1        0.0263
     30 H           9.3267    0.9149    0.0000 H       1  UNL1        0.0377
     31 H           8.5297    0.9149    0.0000 H       1  UNL1        0.0377
     32 H          14.6804   -0.5969    0.0000 H       1  UNL1        0.0230
     33 H          15.5273   -0.3700    0.0000 H       1  UNL1        0.0230
     34 H          15.3004    0.4769    0.0000 H       1  UNL1        0.0230
     35 H           5.9316   -0.5349    0.0000 H       1  UNL1        0.0700
     36 H           6.7287   -0.5349    0.0000 H       1  UNL1        0.0700
     37 H           5.8626    0.9149    0.0000 H       1  UNL1        0.0340
     38 H           5.0656    0.9149    0.0000 H       1  UNL1        0.0340
     39 H           4.5981   -0.6800    0.0000 H       1  UNL1        0.0570
     40 H           3.7320    1.0600    0.0000 H       1  UNL1        0.0569
     41 H           2.4675   -0.5349    0.0000 H       1  UNL1        0.0305
     42 H           3.2646   -0.5349    0.0000 H       1  UNL1        0.0305
     43 H           2.3100    0.9769    0.0000 H       1  UNL1        0.0233
     44 H           1.4631    0.7500    0.0000 H       1  UNL1        0.0233
     45 H           1.6900   -0.0969    0.0000 H       1  UNL1        0.0233
@<TRIPOS>BOND
     1     1    11    1
     2     1    12    1
     3     2    11    2
     4     3     4    1
     5     3     5    1
     6     3    18    1
     7     3    19    1
     8     4     6    1
     9     4    20    1
    10     4    21    1
    11     5     7    1
    12     5    22    1
    13     5    23    1
    14     6     8    1
    15     6    24    1
    16     6    25    1
    17     7     9    1
    18     7    26    1
    19     7    27    1
    20     8    10    1
    21     8    28    1
    22     8    29    1
    23     9    11    1
    24     9    30    1
    25     9    31    1
    26    10    32    1
    27    10    33    1
    28    10    34    1
    29    12    13    1
    30    12    35    1
    31    12    36    1
    32    13    14    1
    33    13    37    1
    34    13    38    1
    35    14    15    2
    36    14    39    1
    37    15    16    1
    38    15    40    1
    39    16    17    1
    40    16    41    1
    41    16    42    1
    42    17    43    1
    43    17    44    1
    44    17    45    1
