@<TRIPOS>MOLECULE
IMPHY005145
 72 76 0 0 0
SMALL
GASTEIGER

@<TRIPOS>ATOM
      1 O           8.5991   -1.7500    0.0000 O.3     1  UNL1       -0.3609
      2 O           5.1350    1.2500    0.0000 O.3     1  UNL1       -0.3609
      3 O           6.0010   -1.2500    0.0000 O.3     1  UNL1       -0.3862
      4 O           6.8671    3.2500    0.0000 O.3     1  UNL1       -0.3862
      5 O           6.0010   -3.2500    0.0000 O.3     1  UNL1       -0.3865
      6 O           5.1350    4.2500    0.0000 O.3     1  UNL1       -0.3865
      7 O           7.7331   -4.2500    0.0000 O.3     1  UNL1       -0.3865
      8 O           3.4030    3.2500    0.0000 O.3     1  UNL1       -0.3865
      9 O           9.4931   -0.2847    0.0000 O.2     1  UNL1       -0.4615
     10 O           6.0010   -0.2500    0.0000 O.3     1  UNL1       -0.5058
     11 O           7.7331    2.7500    0.0000 O.3     1  UNL1       -0.5054
     12 O           9.4651   -4.2500    0.0000 O.3     1  UNL1       -0.3924
     13 O           2.5369    1.7500    0.0000 O.3     1  UNL1       -0.3924
     14 O           9.4815    2.7846    0.0000 O.2     1  UNL1       -0.2863
     15 O          13.8555    3.2842    0.0000 O.3     1  UNL1       -0.5068
     16 C           7.7331   -1.2500    0.0000 C.3     1  UNL1        0.1193
     17 C           6.0010    1.7500    0.0000 C.3     1  UNL1        0.1193
     18 C           6.8671   -1.7500    0.0000 C.3     1  UNL1        0.1139
     19 C           6.0010    2.7500    0.0000 C.3     1  UNL1        0.1139
     20 C           6.8671   -2.7500    0.0000 C.3     1  UNL1        0.1121
     21 C           5.1350    3.2500    0.0000 C.3     1  UNL1        0.1121
     22 C           7.7331   -3.2500    0.0000 C.3     1  UNL1        0.1117
     23 C           4.2690    2.7500    0.0000 C.3     1  UNL1        0.1117
     24 C           8.5991   -2.7500    0.0000 C.3     1  UNL1        0.1108
     25 C           4.2690    1.7500    0.0000 C.3     1  UNL1        0.1108
     26 C           7.7331   -0.2500    0.0000 C.ar    1  UNL1        0.0685
     27 C           6.8671    1.2500    0.0000 C.ar    1  UNL1        0.0677
     28 C           6.8671    0.2500    0.0000 C.ar    1  UNL1        0.1353
     29 C           8.5991    0.2500    0.0000 C.ar    1  UNL1        0.1512
     30 C           7.7331    1.7500    0.0000 C.ar    1  UNL1        0.1404
     31 C           8.5991    1.2500    0.0000 C.ar    1  UNL1        0.1068
     32 C           9.4651   -3.2500    0.0000 C.3     1  UNL1        0.0729
     33 C           3.4030    1.2500    0.0000 C.3     1  UNL1        0.0729
     34 C           9.4931    1.7847    0.0000 C.ar    1  UNL1        0.2037
     35 C          10.3991    1.2708    0.0000 C.ar    1  UNL1        0.0644
     36 C          10.3991    0.2292    0.0000 C.ar    1  UNL1        0.1039
     37 C          11.2632    1.7742    0.0000 C.ar    1  UNL1       -0.0110
     38 C          11.2594    2.7741    0.0000 C.ar    1  UNL1       -0.0504
     39 C          12.1312    1.2775    0.0000 C.ar    1  UNL1       -0.0504
     40 C          12.1235    3.2775    0.0000 C.ar    1  UNL1       -0.0196
     41 C          12.9953    1.7808    0.0000 C.ar    1  UNL1       -0.0196
     42 C          12.9914    2.7808    0.0000 C.ar    1  UNL1        0.1169
     43 H           8.4692   -0.8250    0.0000 H       1  UNL1        0.0676
     44 H           6.0010    0.9000    0.0000 H       1  UNL1        0.0676
     45 H           6.8671   -1.1300    0.0000 H       1  UNL1        0.0649
     46 H           6.5380    2.4400    0.0000 H       1  UNL1        0.0649
     47 H           6.3301   -2.4400    0.0000 H       1  UNL1        0.0647
     48 H           5.6720    3.5600    0.0000 H       1  UNL1        0.0647
     49 H           8.2700   -3.5600    0.0000 H       1  UNL1        0.0647
     50 H           4.2690    3.3700    0.0000 H       1  UNL1        0.0647
     51 H           9.1360   -2.4400    0.0000 H       1  UNL1        0.0646
     52 H           4.2690    1.1300    0.0000 H       1  UNL1        0.0646
     53 H          10.0757   -3.3577    0.0000 H       1  UNL1        0.0584
     54 H           9.6772   -2.6674    0.0000 H       1  UNL1        0.0584
     55 H           3.0044    0.7751    0.0000 H       1  UNL1        0.0584
     56 H           3.8015    0.7751    0.0000 H       1  UNL1        0.0584
     57 H           5.4641   -1.5600    0.0000 H       1  UNL1        0.2100
     58 H           6.8671    3.8700    0.0000 H       1  UNL1        0.2100
     59 H           6.0010   -3.8700    0.0000 H       1  UNL1        0.2100
     60 H           4.5981    4.5600    0.0000 H       1  UNL1        0.2100
     61 H           7.1962   -4.5600    0.0000 H       1  UNL1        0.2100
     62 H           3.4030    3.8700    0.0000 H       1  UNL1        0.2100
     63 H           5.4641    0.0600    0.0000 H       1  UNL1        0.2922
     64 H           8.2700    3.0600    0.0000 H       1  UNL1        0.2922
     65 H          10.9349   -0.0829    0.0000 H       1  UNL1        0.1037
     66 H          10.0021   -4.5600    0.0000 H       1  UNL1        0.2095
     67 H           2.0000    1.4400    0.0000 H       1  UNL1        0.2095
     68 H          10.7212    3.0821    0.0000 H       1  UNL1        0.0625
     69 H          12.1336    0.6575    0.0000 H       1  UNL1        0.0625
     70 H          12.1211    3.8975    0.0000 H       1  UNL1        0.0654
     71 H          13.5334    1.4729    0.0000 H       1  UNL1        0.0654
     72 H          14.3936    2.9762    0.0000 H       1  UNL1        0.2921
@<TRIPOS>BOND
     1     1    16    1
     2     1    24    1
     3     2    17    1
     4     2    25    1
     5    18     3    1
     6     3    57    1
     7    19     4    1
     8     4    58    1
     9    20     5    1
    10     5    59    1
    11    21     6    1
    12     6    60    1
    13    22     7    1
    14     7    61    1
    15    23     8    1
    16     8    62    1
    17     9    29   ar
    18     9    36   ar
    19    10    28    1
    20    10    63    1
    21    11    30    1
    22    11    64    1
    23    12    32    1
    24    12    66    1
    25    13    33    1
    26    13    67    1
    27    14    34    2
    28    15    42    1
    29    15    72    1
    30    16    18    1
    31    16    26    1
    32    16    43    1
    33    17    19    1
    34    17    27    1
    35    17    44    1
    36    18    20    1
    37    18    45    1
    38    19    21    1
    39    19    46    1
    40    20    22    1
    41    20    47    1
    42    21    23    1
    43    21    48    1
    44    22    24    1
    45    22    49    1
    46    23    25    1
    47    23    50    1
    48    24    32    1
    49    24    51    1
    50    25    33    1
    51    25    52    1
    52    26    28   ar
    53    26    29   ar
    54    27    28   ar
    55    27    30   ar
    56    29    31   ar
    57    30    31   ar
    58    31    34   ar
    59    32    53    1
    60    32    54    1
    61    33    55    1
    62    33    56    1
    63    34    35   ar
    64    35    36   ar
    65    35    37    1
    66    36    65    1
    67    37    38   ar
    68    37    39   ar
    69    38    40   ar
    70    38    68    1
    71    39    41   ar
    72    39    69    1
    73    40    42   ar
    74    40    70    1
    75    41    42   ar
    76    41    71    1
