@<TRIPOS>MOLECULE
IMPHY008312
 34 35 0 0 0
SMALL
GASTEIGER

@<TRIPOS>ATOM
      1 O           2.5369   -1.0000    0.0000 O.3     1  UNL1       -0.5031
      2 O           2.5369    1.0000    0.0000 O.3     1  UNL1       -0.5028
      3 O           6.0174   -2.0346    0.0000 O.2     1  UNL1       -0.2870
      4 O           6.0174    2.0346    0.0000 O.2     1  UNL1       -0.2872
      5 O           3.4030    2.5000    0.0000 O.2     1  UNL1       -0.2956
      6 C           4.2690   -2.0000    0.0000 C.3     1  UNL1       -0.0172
      7 C           4.2690   -1.0000    0.0000 C.ar    1  UNL1        0.0118
      8 C           5.1350   -0.5000    0.0000 C.ar    1  UNL1        0.0405
      9 C           5.1350    0.5000    0.0000 C.ar    1  UNL1        0.0467
     10 C           3.4030   -0.5000    0.0000 C.ar    1  UNL1        0.1631
     11 C           4.2690    1.0000    0.0000 C.ar    1  UNL1        0.0707
     12 C           6.0290   -1.0347    0.0000 C.2     1  UNL1        0.1901
     13 C           3.4030   -2.5000    0.0000 C.3     1  UNL1       -0.0585
     14 C           5.1350   -2.5000    0.0000 C.3     1  UNL1       -0.0585
     15 C           3.4030    0.5000    0.0000 C.ar    1  UNL1        0.1696
     16 C           6.0290    1.0347    0.0000 C.2     1  UNL1        0.1879
     17 C           6.9350   -0.5208    0.0000 C.2     1  UNL1        0.0005
     18 C           6.9350    0.5208    0.0000 C.2     1  UNL1       -0.0078
     19 C           7.7991   -1.0241    0.0000 C.3     1  UNL1       -0.0359
     20 C           4.2690    2.0000    0.0000 C.2     1  UNL1        0.1545
     21 H           4.2690   -2.6200    0.0000 H       1  UNL1        0.0345
     22 H           3.0930   -1.9631    0.0000 H       1  UNL1        0.0235
     23 H           2.8660   -2.8100    0.0000 H       1  UNL1        0.0235
     24 H           3.7130   -3.0369    0.0000 H       1  UNL1        0.0235
     25 H           4.8250   -3.0369    0.0000 H       1  UNL1        0.0235
     26 H           5.6720   -2.8100    0.0000 H       1  UNL1        0.0235
     27 H           5.4450   -1.9631    0.0000 H       1  UNL1        0.0235
     28 H           7.4708    0.8329    0.0000 H       1  UNL1        0.0660
     29 H           7.4870   -1.5599    0.0000 H       1  UNL1        0.0279
     30 H           8.3348   -1.3362    0.0000 H       1  UNL1        0.0279
     31 H           8.1112   -0.4884    0.0000 H       1  UNL1        0.0279
     32 H           4.8059    2.3100    0.0000 H       1  UNL1        0.1083
     33 H           2.0000   -0.6900    0.0000 H       1  UNL1        0.2923
     34 H           2.0000    0.6900    0.0000 H       1  UNL1        0.2923
@<TRIPOS>BOND
     1     1    10    1
     2     1    33    1
     3     2    15    1
     4     2    34    1
     5     3    12    2
     6     4    16    2
     7     5    20    2
     8     6     7    1
     9     6    13    1
    10     6    14    1
    11     6    21    1
    12     7     8   ar
    13     7    10   ar
    14     8     9   ar
    15     8    12    1
    16     9    11   ar
    17     9    16    1
    18    10    15   ar
    19    11    15   ar
    20    11    20    1
    21    12    17    1
    22    13    22    1
    23    13    23    1
    24    13    24    1
    25    14    25    1
    26    14    26    1
    27    14    27    1
    28    16    18    1
    29    17    18    2
    30    17    19    1
    31    18    28    1
    32    19    29    1
    33    19    30    1
    34    19    31    1
    35    20    32    1
