@<TRIPOS>MOLECULE
IMPHY001748
 46 47 0 0 0
SMALL
GASTEIGER

@<TRIPOS>ATOM
      1 O           4.5981   -0.4728    0.0000 O.2     1  UNL1       -0.2832
      2 O           2.8660    0.5272    0.0000 O.2     1  UNL1       -0.2835
      3 C           6.3580    0.4926    0.0000 C.ar    1  UNL1       -0.0330
      4 C           5.4641    1.0272    0.0000 C.ar    1  UNL1        0.0361
      5 C           6.3465   -0.5074    0.0000 C.3     1  UNL1       -0.0265
      6 C           5.4641    2.0272    0.0000 C.ar    1  UNL1       -0.0134
      7 C           7.2067   -1.0174    0.0000 C.3     1  UNL1       -0.0454
      8 C           3.7320    2.0272    0.0000 C.2     1  UNL1        0.0063
      9 C           7.2641    1.0064    0.0000 C.ar    1  UNL1       -0.0466
     10 C           2.8660    2.5272    0.0000 C.3     1  UNL1       -0.0178
     11 C           4.5981    2.5272    0.0000 C.2     1  UNL1       -0.0467
     12 C           4.5981    0.5272    0.0000 C.2     1  UNL1        0.2334
     13 C           7.1951   -2.0173    0.0000 C.3     1  UNL1       -0.0320
     14 C           3.7320    1.0272    0.0000 C.2     1  UNL1        0.2293
     15 C           6.3580    2.5619    0.0000 C.ar    1  UNL1       -0.0536
     16 C           7.2641    2.0480    0.0000 C.ar    1  UNL1       -0.0580
     17 C           2.8660    3.5272    0.0000 C.3     1  UNL1       -0.0585
     18 C           2.0000    2.0272    0.0000 C.3     1  UNL1       -0.0585
     19 C           8.1282    0.5031    0.0000 C.3     1  UNL1       -0.0394
     20 C           8.0553   -2.5273    0.0000 C.2     1  UNL1       -0.0797
     21 C           8.0437   -3.5272    0.0000 C.3     1  UNL1       -0.0440
     22 C           8.9270   -2.0373    0.0000 C.2     1  UNL1       -0.0997
     23 H           5.7372   -0.3927    0.0000 H       1  UNL1        0.0314
     24 H           6.1277   -1.0875    0.0000 H       1  UNL1        0.0314
     25 H           7.8160   -1.1321    0.0000 H       1  UNL1        0.0271
     26 H           7.4254   -0.4372    0.0000 H       1  UNL1        0.0271
     27 H           2.8660    1.9072    0.0000 H       1  UNL1        0.0345
     28 H           4.5981    3.1472    0.0000 H       1  UNL1        0.0628
     29 H           6.5858   -1.9026    0.0000 H       1  UNL1        0.0310
     30 H           6.9763   -2.5974    0.0000 H       1  UNL1        0.0310
     31 H           6.3509    3.1818    0.0000 H       1  UNL1        0.0624
     32 H           7.7998    2.3601    0.0000 H       1  UNL1        0.0620
     33 H           3.4860    3.5272    0.0000 H       1  UNL1        0.0235
     34 H           2.8660    4.1472    0.0000 H       1  UNL1        0.0235
     35 H           2.2460    3.5272    0.0000 H       1  UNL1        0.0235
     36 H           1.6900    2.5642    0.0000 H       1  UNL1        0.0235
     37 H           1.4631    1.7172    0.0000 H       1  UNL1        0.0235
     38 H           2.3100    1.4903    0.0000 H       1  UNL1        0.0235
     39 H           7.8161   -0.0327    0.0000 H       1  UNL1        0.0278
     40 H           8.6639    0.1910    0.0000 H       1  UNL1        0.0278
     41 H           8.4403    1.0388    0.0000 H       1  UNL1        0.0278
     42 H           7.4238   -3.5200    0.0000 H       1  UNL1        0.0274
     43 H           8.0366   -4.1472    0.0000 H       1  UNL1        0.0274
     44 H           8.6637   -3.5344    0.0000 H       1  UNL1        0.0274
     45 H           9.4604   -2.3535    0.0000 H       1  UNL1        0.0534
     46 H           8.9342   -1.4174    0.0000 H       1  UNL1        0.0534
@<TRIPOS>BOND
     1     1    12    2
     2     2    14    2
     3     3     4   ar
     4     3     5    1
     5     3     9   ar
     6     4     6   ar
     7     4    12    1
     8     5     7    1
     9     5    23    1
    10     5    24    1
    11     6    11    1
    12     6    15   ar
    13     7    13    1
    14     7    25    1
    15     7    26    1
    16     8    10    1
    17     8    11    2
    18     8    14    1
    19     9    16   ar
    20     9    19    1
    21    10    17    1
    22    10    18    1
    23    10    27    1
    24    11    28    1
    25    12    14    1
    26    13    20    1
    27    13    29    1
    28    13    30    1
    29    15    16   ar
    30    15    31    1
    31    16    32    1
    32    17    33    1
    33    17    34    1
    34    17    35    1
    35    18    36    1
    36    18    37    1
    37    18    38    1
    38    19    39    1
    39    19    40    1
    40    19    41    1
    41    20    21    1
    42    20    22    2
    43    21    42    1
    44    21    43    1
    45    21    44    1
    46    22    45    1
    47    22    46    1
