@<TRIPOS>MOLECULE
IMPHY004494
 30 32 0 0 0
SMALL
GASTEIGER

@<TRIPOS>ATOM
      1 O           2.9757    1.7493    0.0000 O.3     1  UNL1       -0.4930
      2 O           8.9488   -1.5062    0.0000 O.3     1  UNL1       -0.3904
      3 N           5.0981    1.1503    0.0000 N.ar    1  UNL1       -0.3513
      4 C           5.5981   -0.3886    0.0000 C.ar    1  UNL1        0.0078
      5 C           4.5981   -0.3886    0.0000 C.ar    1  UNL1        0.0110
      6 C           5.9071    0.5625    0.0000 C.ar    1  UNL1        0.0476
      7 C           4.2891    0.5625    0.0000 C.ar    1  UNL1        0.0897
      8 C           6.2831   -1.1733    0.0000 C.ar    1  UNL1       -0.0466
      9 C           3.2737    0.7947    0.0000 C.ar    1  UNL1        0.1439
     10 C           7.3036   -0.9646    0.0000 C.ar    1  UNL1       -0.0215
     11 C           6.9225    0.7947    0.0000 C.ar    1  UNL1       -0.0374
     12 C           3.9131   -1.1733    0.0000 C.ar    1  UNL1       -0.0518
     13 C           7.6255    0.0261    0.0000 C.ar    1  UNL1       -0.0544
     14 C           2.5707    0.0261    0.0000 C.ar    1  UNL1       -0.0179
     15 C           2.8926   -0.9646    0.0000 C.ar    1  UNL1       -0.0576
     16 C           7.9698   -1.7103    0.0000 C.3     1  UNL1        0.0693
     17 C           2.0000    1.9685    0.0000 C.3     1  UNL1        0.0789
     18 H           5.0981    1.7703    0.0000 H       1  UNL1        0.1660
     19 H           6.0847   -1.7607    0.0000 H       1  UNL1        0.0628
     20 H           7.1073    1.3866    0.0000 H       1  UNL1        0.0638
     21 H           4.1115   -1.7607    0.0000 H       1  UNL1        0.0624
     22 H           8.2314    0.1573    0.0000 H       1  UNL1        0.0622
     23 H           1.9648    0.1573    0.0000 H       1  UNL1        0.0655
     24 H           2.4795   -1.4269    0.0000 H       1  UNL1        0.0619
     25 H           7.4428   -2.0368    0.0000 H       1  UNL1        0.0607
     26 H           8.1999   -2.2861    0.0000 H       1  UNL1        0.0607
     27 H           2.1359    2.5734    0.0000 H       1  UNL1        0.0660
     28 H           1.3951    2.1044    0.0000 H       1  UNL1        0.0660
     29 H           1.8641    1.3636    0.0000 H       1  UNL1        0.0660
     30 H           9.3619   -1.9685    0.0000 H       1  UNL1        0.2098
@<TRIPOS>BOND
     1     1     9    1
     2     1    17    1
     3     2    16    1
     4     2    30    1
     5     3     6   ar
     6     3     7   ar
     7     3    18    1
     8     4     5   ar
     9     4     6   ar
    10     4     8   ar
    11     5     7   ar
    12     5    12   ar
    13     6    11   ar
    14     7     9   ar
    15     8    10   ar
    16     8    19    1
    17     9    14   ar
    18    10    13   ar
    19    10    16    1
    20    11    13   ar
    21    11    20    1
    22    12    15   ar
    23    12    21    1
    24    13    22    1
    25    14    15   ar
    26    14    23    1
    27    15    24    1
    28    16    25    1
    29    16    26    1
    30    17    27    1
    31    17    28    1
    32    17    29    1
