@<TRIPOS>MOLECULE
IMPHY015400
 28 29 0 0 0
SMALL
GASTEIGER

@<TRIPOS>ATOM
      1 O           5.4920   -1.0347    0.0000 O.3     1  UNL1       -0.4253
      2 O           7.2622   -1.0241    0.0000 O.2     1  UNL1       -0.2504
      3 C           4.5981    0.5000    0.0000 C.ar    1  UNL1       -0.0013
      4 C           5.4920    1.0347    0.0000 C.3     1  UNL1       -0.0139
      5 C           4.5981   -0.5000    0.0000 C.ar    1  UNL1        0.1382
      6 C           3.7320    1.0000    0.0000 C.ar    1  UNL1       -0.0435
      7 C           3.7320   -1.0000    0.0000 C.ar    1  UNL1       -0.0049
      8 C           6.3981    0.5208    0.0000 C.3     1  UNL1        0.0494
      9 C           2.8660   -0.5000    0.0000 C.ar    1  UNL1       -0.0438
     10 C           2.8660    0.5000    0.0000 C.ar    1  UNL1       -0.0552
     11 C           6.3981   -0.5208    0.0000 C.2     1  UNL1        0.3127
     12 C           3.7320    2.0000    0.0000 C.3     1  UNL1       -0.0393
     13 C           3.7320   -2.0000    0.0000 C.3     1  UNL1       -0.0360
     14 C           2.0000   -1.0000    0.0000 C.3     1  UNL1       -0.0393
     15 H           5.8856    1.5137    0.0000 H       1  UNL1        0.0320
     16 H           5.0874    1.5044    0.0000 H       1  UNL1        0.0320
     17 H           7.0089    0.4147    0.0000 H       1  UNL1        0.0381
     18 H           6.6071    1.1045    0.0000 H       1  UNL1        0.0381
     19 H           2.3291    0.8100    0.0000 H       1  UNL1        0.0623
     20 H           4.3520    2.0000    0.0000 H       1  UNL1        0.0278
     21 H           3.7320    2.6200    0.0000 H       1  UNL1        0.0278
     22 H           3.1120    2.0000    0.0000 H       1  UNL1        0.0278
     23 H           3.1120   -2.0000    0.0000 H       1  UNL1        0.0279
     24 H           3.7320   -2.6200    0.0000 H       1  UNL1        0.0279
     25 H           4.3520   -2.0000    0.0000 H       1  UNL1        0.0279
     26 H           1.6900   -0.4631    0.0000 H       1  UNL1        0.0278
     27 H           1.4631   -1.3100    0.0000 H       1  UNL1        0.0278
     28 H           2.3100   -1.5369    0.0000 H       1  UNL1        0.0278
@<TRIPOS>BOND
     1     1     5    1
     2     1    11    1
     3     2    11    2
     4     3     4    1
     5     3     5   ar
     6     3     6   ar
     7     4     8    1
     8     4    15    1
     9     4    16    1
    10     5     7   ar
    11     6    10   ar
    12     6    12    1
    13     7     9   ar
    14     7    13    1
    15     8    11    1
    16     8    17    1
    17     8    18    1
    18     9    10   ar
    19     9    14    1
    20    10    19    1
    21    12    20    1
    22    12    21    1
    23    12    22    1
    24    13    23    1
    25    13    24    1
    26    13    25    1
    27    14    26    1
    28    14    27    1
    29    14    28    1
