@<TRIPOS>MOLECULE
IMPHY007343
 11 10 0 0 0
SMALL
GASTEIGER

@<TRIPOS>ATOM
      1 S           2.8660    0.2500    0.0000 S.O     1  UNL1        0.0779
      2 S           3.7320    0.7500    0.0000 S.3     1  UNL1       -0.0649
      3 O           2.8660   -0.7500    0.0000 O.2     1  UNL1       -0.2462
      4 C           2.0000    0.7500    0.0000 C.3     1  UNL1        0.0219
      5 C           4.5981    0.2500    0.0000 C.3     1  UNL1       -0.0056
      6 H           2.3100    1.2869    0.0000 H       1  UNL1        0.0373
      7 H           1.4631    1.0600    0.0000 H       1  UNL1        0.0373
      8 H           1.6900    0.2131    0.0000 H       1  UNL1        0.0373
      9 H           4.2881   -0.2869    0.0000 H       1  UNL1        0.0349
     10 H           5.1350   -0.0600    0.0000 H       1  UNL1        0.0349
     11 H           4.9081    0.7869    0.0000 H       1  UNL1        0.0349
@<TRIPOS>BOND
     1     1     2    1
     2     1     3    2
     3     1     4    1
     4     2     5    1
     5     4     6    1
     6     4     7    1
     7     4     8    1
     8     5     9    1
     9     5    10    1
    10     5    11    1
