@<TRIPOS>MOLECULE
IMPHY005367
 13 13 0 0 0
SMALL
GASTEIGER

@<TRIPOS>ATOM
      1 N           3.1235   -0.7853    0.0000 N.pl3   1  UNL1       -0.2450
      2 N           4.0245   -0.3514    0.0000 N.2     1  UNL1       -0.1910
      3 C           2.0000    0.6235    0.0000 C.2     1  UNL1       -0.0464
      4 C           2.6235    1.4053    0.0000 C.2     1  UNL1       -0.0591
      5 C           2.2225   -0.3514    0.0000 C.2     1  UNL1        0.0119
      6 C           3.6235    1.4053    0.0000 C.2     1  UNL1       -0.0421
      7 C           4.2470    0.6235    0.0000 C.2     1  UNL1        0.0456
      8 H           1.3955    0.7615    0.0000 H       1  UNL1        0.0630
      9 H           2.3545    1.9639    0.0000 H       1  UNL1        0.0618
     10 H           1.7378   -0.7380    0.0000 H       1  UNL1        0.0797
     11 H           3.8925    1.9639    0.0000 H       1  UNL1        0.0633
     12 H           3.1235   -1.4053    0.0000 H       1  UNL1        0.1737
     13 H           4.8514    0.7615    0.0000 H       1  UNL1        0.0845
@<TRIPOS>BOND
     1     1     2    1
     2     1     5    1
     3     1    12    1
     4     2     7    2
     5     3     4    1
     6     3     5    2
     7     3     8    1
     8     4     6    2
     9     4     9    1
    10     5    10    1
    11     6     7    1
    12     6    11    1
    13     7    13    1
