@<TRIPOS>MOLECULE
IMPHY008612
 47 48 0 0 0
SMALL
GASTEIGER

@<TRIPOS>ATOM
      1 S           6.0010    3.9050    0.0000 S.2     1  UNL1        0.0058
      2 O           4.2690   -2.0950    0.0000 O.3     1  UNL1       -0.3339
      3 O           6.0010   -2.0950    0.0000 O.3     1  UNL1       -0.4608
      4 O           4.2690   -5.0950    0.0000 O.3     1  UNL1       -0.3864
      5 O           2.5369   -4.0950    0.0000 O.3     1  UNL1       -0.3866
      6 O           6.0010   -4.0950    0.0000 O.3     1  UNL1       -0.3829
      7 O           7.7331    3.9050    0.0000 O.3     1  UNL1       -0.4744
      8 N           6.8671    2.4050    0.0000 N.am    1  UNL1       -0.3052
      9 C           4.2690   -4.0950    0.0000 C.3     1  UNL1        0.1151
     10 C           3.4030   -3.5950    0.0000 C.3     1  UNL1        0.1096
     11 C           5.1350   -3.5950    0.0000 C.3     1  UNL1        0.1454
     12 C           3.4030   -2.5950    0.0000 C.3     1  UNL1        0.0883
     13 C           5.1350   -2.5950    0.0000 C.3     1  UNL1        0.2307
     14 C           2.5369   -2.0950    0.0000 C.3     1  UNL1       -0.0360
     15 C           6.0010   -1.0950    0.0000 C.ar    1  UNL1        0.1240
     16 C           6.8671   -0.5950    0.0000 C.ar    1  UNL1       -0.0195
     17 C           5.1350   -0.5950    0.0000 C.ar    1  UNL1       -0.0195
     18 C           6.0010    0.9050    0.0000 C.ar    1  UNL1       -0.0301
     19 C           6.8671    0.4050    0.0000 C.ar    1  UNL1       -0.0536
     20 C           5.1350    0.4050    0.0000 C.ar    1  UNL1       -0.0536
     21 C           6.0010    1.9050    0.0000 C.3     1  UNL1        0.0375
     22 C           6.8671    3.4050    0.0000 C.2     1  UNL1        0.2283
     23 C           7.7331    4.9050    0.0000 C.3     1  UNL1        0.0887
     24 C           8.5991    5.4050    0.0000 C.3     1  UNL1       -0.0306
     25 H           4.8059   -4.4050    0.0000 H       1  UNL1        0.0648
     26 H           2.8660   -3.2850    0.0000 H       1  UNL1        0.0646
     27 H           5.6720   -3.2850    0.0000 H       1  UNL1        0.0683
     28 H           3.4030   -1.9750    0.0000 H       1  UNL1        0.0621
     29 H           5.1350   -1.9750    0.0000 H       1  UNL1        0.1084
     30 H           2.8469   -1.5581    0.0000 H       1  UNL1        0.0255
     31 H           2.0000   -1.7850    0.0000 H       1  UNL1        0.0255
     32 H           2.2269   -2.6319    0.0000 H       1  UNL1        0.0255
     33 H           3.7320   -5.4050    0.0000 H       1  UNL1        0.2100
     34 H           2.0000   -3.7850    0.0000 H       1  UNL1        0.2100
     35 H           6.0010   -4.7150    0.0000 H       1  UNL1        0.2102
     36 H           7.4040   -0.9050    0.0000 H       1  UNL1        0.0654
     37 H           4.5981   -0.9050    0.0000 H       1  UNL1        0.0654
     38 H           7.4040    0.7150    0.0000 H       1  UNL1        0.0622
     39 H           4.5981    0.7150    0.0000 H       1  UNL1        0.0622
     40 H           5.7890    2.4876    0.0000 H       1  UNL1        0.0512
     41 H           5.3905    1.7973    0.0000 H       1  UNL1        0.0512
     42 H           7.4040    2.0950    0.0000 H       1  UNL1        0.1497
     43 H           7.5210    5.4876    0.0000 H       1  UNL1        0.0694
     44 H           7.1225    4.7973    0.0000 H       1  UNL1        0.0694
     45 H           8.9091    4.8681    0.0000 H       1  UNL1        0.0262
     46 H           9.1360    5.7150    0.0000 H       1  UNL1        0.0262
     47 H           8.2891    5.9419    0.0000 H       1  UNL1        0.0262
@<TRIPOS>BOND
     1     1    22    2
     2     2    12    1
     3     2    13    1
     4    13     3    1
     5     3    15    1
     6     9     4    1
     7     4    33    1
     8    10     5    1
     9     5    34    1
    10    11     6    1
    11     6    35    1
    12     7    22    1
    13     7    23    1
    14     8    21    1
    15     8    22    1
    16     8    42    1
    17     9    10    1
    18     9    11    1
    19     9    25    1
    20    10    12    1
    21    10    26    1
    22    11    13    1
    23    11    27    1
    24    12    14    1
    25    12    28    1
    26    13    29    1
    27    14    30    1
    28    14    31    1
    29    14    32    1
    30    15    16   ar
    31    15    17   ar
    32    16    19   ar
    33    16    36    1
    34    17    20   ar
    35    17    37    1
    36    18    19   ar
    37    18    20   ar
    38    18    21    1
    39    19    38    1
    40    20    39    1
    41    21    40    1
    42    21    41    1
    43    23    24    1
    44    23    43    1
    45    23    44    1
    46    24    45    1
    47    24    46    1
    48    24    47    1
