@<TRIPOS>MOLECULE
IMPHY013429
 48 51 0 0 0
SMALL
GASTEIGER

@<TRIPOS>ATOM
      1 O           5.7935    2.3846    0.0000 O.3     1  UNL1       -0.4848
      2 O           7.6613    4.1866    0.0000 O.3     1  UNL1       -0.3855
      3 O           6.1997   -0.8434    0.0000 O.2     1  UNL1       -0.4540
      4 O           8.9600    0.4987    0.0000 O.2     1  UNL1       -0.2866
      5 O           9.7959   -1.1379    0.0000 O.3     1  UNL1       -0.5058
      6 O           2.4561    1.5210    0.0000 O.3     1  UNL1       -0.5066
      7 O           7.7712   -4.1324    0.0000 O.3     1  UNL1       -0.4949
      8 C           6.7935    2.3846    0.0000 C.3     1  UNL1        0.1323
      9 C           7.2274    3.2856    0.0000 C.3     1  UNL1        0.0974
     10 C           7.4170    1.6028    0.0000 C.3     1  UNL1        0.0194
     11 C           7.1945    0.6279    0.0000 C.ar    1  UNL1        0.0466
     12 C           6.2935    0.1940    0.0000 C.ar    1  UNL1        0.1460
     13 C           6.3265    3.7195    0.0000 C.3     1  UNL1       -0.0328
     14 C           8.1284    2.8517    0.0000 C.3     1  UNL1       -0.0328
     15 C           5.3926    0.6279    0.0000 C.ar    1  UNL1        0.0595
     16 C           5.1700    1.6028    0.0000 C.ar    1  UNL1        0.1352
     17 C           8.0641    0.0545    0.0000 C.ar    1  UNL1        0.1999
     18 C           7.9943   -0.9848    0.0000 C.ar    1  UNL1        0.1057
     19 C           7.0558   -1.4368    0.0000 C.ar    1  UNL1        0.1463
     20 C           4.6400   -0.0923    0.0000 C.ar    1  UNL1       -0.0441
     21 C           4.1796    1.9252    0.0000 C.ar    1  UNL1        0.0223
     22 C           8.9000   -1.5821    0.0000 C.ar    1  UNL1        0.1347
     23 C           3.4105    1.2226    0.0000 C.ar    1  UNL1        0.1204
     24 C           6.9580   -2.5174    0.0000 C.ar    1  UNL1        0.0233
     25 C           3.6423    0.2071    0.0000 C.ar    1  UNL1       -0.0193
     26 C           8.8273   -2.6647    0.0000 C.ar    1  UNL1        0.0225
     27 C           7.8498   -3.1354    0.0000 C.ar    1  UNL1        0.1271
     28 C           8.5952   -4.6989    0.0000 C.3     1  UNL1        0.0788
     29 H           6.4637    2.9096    0.0000 H       1  UNL1        0.0765
     30 H           7.9756    1.3338    0.0000 H       1  UNL1        0.0352
     31 H           7.8036    2.0876    0.0000 H       1  UNL1        0.0352
     32 H           6.5955    4.2781    0.0000 H       1  UNL1        0.0258
     33 H           5.7679    3.9885    0.0000 H       1  UNL1        0.0258
     34 H           6.0574    3.1609    0.0000 H       1  UNL1        0.0258
     35 H           7.8594    2.2931    0.0000 H       1  UNL1        0.0258
     36 H           8.6870    2.5827    0.0000 H       1  UNL1        0.0258
     37 H           8.3974    3.4103    0.0000 H       1  UNL1        0.0258
     38 H           7.3120    4.6989    0.0000 H       1  UNL1        0.2103
     39 H           4.7850   -0.6951    0.0000 H       1  UNL1        0.0627
     40 H           4.0486    2.5312    0.0000 H       1  UNL1        0.0691
     41 H           6.3964   -2.7799    0.0000 H       1  UNL1        0.0691
     42 H           3.1895   -0.2164    0.0000 H       1  UNL1        0.0654
     43 H           9.3409   -3.0120    0.0000 H       1  UNL1        0.0691
     44 H          10.3122   -1.4812    0.0000 H       1  UNL1        0.2922
     45 H           2.0000    1.1011    0.0000 H       1  UNL1        0.2921
     46 H           8.2440   -5.2098    0.0000 H       1  UNL1        0.0660
     47 H           9.1062   -5.0501    0.0000 H       1  UNL1        0.0660
     48 H           8.9465   -4.1879    0.0000 H       1  UNL1        0.0660
@<TRIPOS>BOND
     1     1     8    1
     2     1    16    1
     3     2     9    1
     4     2    38    1
     5     3    12   ar
     6     3    19   ar
     7     4    17    2
     8     5    22    1
     9     5    44    1
    10     6    23    1
    11     6    45    1
    12     7    27    1
    13     7    28    1
    14     8     9    1
    15     8    10    1
    16     8    29    1
    17     9    13    1
    18     9    14    1
    19    10    11    1
    20    10    30    1
    21    10    31    1
    22    11    12   ar
    23    11    17   ar
    24    12    15    1
    25    13    32    1
    26    13    33    1
    27    13    34    1
    28    14    35    1
    29    14    36    1
    30    14    37    1
    31    15    16   ar
    32    15    20   ar
    33    16    21   ar
    34    17    18   ar
    35    18    19   ar
    36    18    22   ar
    37    19    24   ar
    38    20    25   ar
    39    20    39    1
    40    21    23   ar
    41    21    40    1
    42    22    26   ar
    43    23    25   ar
    44    24    27   ar
    45    24    41    1
    46    25    42    1
    47    26    27   ar
    48    26    43    1
    49    28    46    1
    50    28    47    1
    51    28    48    1
