@<TRIPOS>MOLECULE
IMPHY017829
 47 49 0 0 0
SMALL
GASTEIGER

@<TRIPOS>ATOM
      1 O           4.1084   -0.9784    0.0000 O.3     1  UNL1       -0.4571
      2 O           5.8369   -0.8678    0.0000 O.2     1  UNL1       -0.2511
      3 C           3.5053    1.5249    0.0000 C.3     1  UNL1        0.0114
      4 C           4.0445    0.0196    0.0000 C.3     1  UNL1        0.1244
      5 C           4.0670    1.0980    0.0000 C.3     1  UNL1       -0.0291
      6 C           3.0494   -0.5489    0.0000 C.3     1  UNL1        0.0084
      7 C           2.4493    0.0420    0.0000 C.3     1  UNL1       -0.0319
      8 C           2.9885    0.7385    0.0000 C.3     1  UNL1       -0.0459
      9 C           2.7864    1.7271    0.0000 C.3     1  UNL1       -0.0434
     10 C           2.0000    1.0081    0.0000 C.3     1  UNL1       -0.0490
     11 C           4.9882    0.9407    0.0000 C.3     1  UNL1       -0.0403
     12 C           5.1158   -0.4223    0.0000 C.3     1  UNL1       -0.0115
     13 C           5.5723    0.2667    0.0000 C.3     1  UNL1       -0.0465
     14 C           3.9510    2.4201    0.0000 C.3     1  UNL1       -0.0556
     15 C           2.4418   -1.3432    0.0000 C.3     1  UNL1       -0.0559
     16 C           3.4335   -1.4722    0.0000 C.3     1  UNL1       -0.0559
     17 C           5.4789    1.8121    0.0000 C.3     1  UNL1       -0.0621
     18 C           5.0046   -1.4221    0.0000 C.2     1  UNL1        0.3045
     19 C           5.0684   -2.4201    0.0000 C.3     1  UNL1        0.0333
     20 H           4.1143    0.4798    0.0000 H       1  UNL1        0.0310
     21 H           1.9426   -0.3153    0.0000 H       1  UNL1        0.0307
     22 H           2.9917    1.3585    0.0000 H       1  UNL1        0.0271
     23 H           3.3472    0.2328    0.0000 H       1  UNL1        0.0271
     24 H           3.0613    2.2828    0.0000 H       1  UNL1        0.0272
     25 H           2.2908    2.0997    0.0000 H       1  UNL1        0.0272
     26 H           1.6303    1.5058    0.0000 H       1  UNL1        0.0268
     27 H           1.4673    0.6908    0.0000 H       1  UNL1        0.0268
     28 H           5.6050    1.0030    0.0000 H       1  UNL1        0.0301
     29 H           4.8428   -0.9790    0.0000 H       1  UNL1        0.0304
     30 H           5.6537   -0.7307    0.0000 H       1  UNL1        0.0304
     31 H           6.0561   -0.1211    0.0000 H       1  UNL1        0.0269
     32 H           6.0022    0.7134    0.0000 H       1  UNL1        0.0269
     33 H           4.5060    2.1437    0.0000 H       1  UNL1        0.0236
     34 H           4.2274    2.9751    0.0000 H       1  UNL1        0.0236
     35 H           3.3960    2.6964    0.0000 H       1  UNL1        0.0236
     36 H           1.9494   -0.9665    0.0000 H       1  UNL1        0.0236
     37 H           2.0652   -1.8357    0.0000 H       1  UNL1        0.0236
     38 H           2.9343   -1.7199    0.0000 H       1  UNL1        0.0236
     39 H           2.8610   -1.7104    0.0000 H       1  UNL1        0.0236
     40 H           3.6716   -2.0446    0.0000 H       1  UNL1        0.0236
     41 H           4.0059   -1.2341    0.0000 H       1  UNL1        0.0236
     42 H           6.0191    1.5078    0.0000 H       1  UNL1        0.0233
     43 H           5.7831    2.3523    0.0000 H       1  UNL1        0.0233
     44 H           4.9386    2.1163    0.0000 H       1  UNL1        0.0233
     45 H           4.4497   -2.4596    0.0000 H       1  UNL1        0.0342
     46 H           5.1080   -3.0388    0.0000 H       1  UNL1        0.0342
     47 H           5.6871   -2.3805    0.0000 H       1  UNL1        0.0342
@<TRIPOS>BOND
     1     4     1    1
     2     1    18    1
     3     2    18    2
     4     3     4    1
     5     3     5    1
     6     3     9    1
     7     3    14    1
     8     4     6    1
     9     4    12    1
    10     5     8    1
    11     5    11    1
    12     5    20    1
    13     6     7    1
    14     6    15    1
    15     6    16    1
    16     7     8    1
    17     7    10    1
    18     7    21    1
    19     8    22    1
    20     8    23    1
    21     9    10    1
    22     9    24    1
    23     9    25    1
    24    10    26    1
    25    10    27    1
    26    11    13    1
    27    11    17    1
    28    11    28    1
    29    12    13    1
    30    12    29    1
    31    12    30    1
    32    13    31    1
    33    13    32    1
    34    14    33    1
    35    14    34    1
    36    14    35    1
    37    15    36    1
    38    15    37    1
    39    15    38    1
    40    16    39    1
    41    16    40    1
    42    16    41    1
    43    17    42    1
    44    17    43    1
    45    17    44    1
    46    18    19    1
    47    19    45    1
    48    19    46    1
    49    19    47    1
