@<TRIPOS>MOLECULE
IMPHY004899
 40 43 0 0 0
SMALL
GASTEIGER

@<TRIPOS>ATOM
      1 O          10.4263    1.6076    0.0000 O.3     1  UNL1       -0.4816
      2 O           6.0682   -1.9270    0.0000 O.2     1  UNL1       -0.4620
      3 O           6.0682    1.0730    0.0000 O.2     1  UNL1       -0.2864
      4 O           2.5381   -1.9512    0.0000 O.3     1  UNL1       -0.5066
      5 C          11.3324    1.0938    0.0000 C.3     1  UNL1        0.1235
      6 C           9.5323    0.0729    0.0000 C.ar    1  UNL1        0.0171
      7 C           9.5323    1.0730    0.0000 C.ar    1  UNL1        0.1289
      8 C          11.3324    0.0521    0.0000 C.2     1  UNL1       -0.0409
      9 C          12.3324    1.0976    0.0000 C.3     1  UNL1       -0.0215
     10 C          11.8290    1.9617    0.0000 C.3     1  UNL1       -0.0215
     11 C          10.4263   -0.4617    0.0000 C.2     1  UNL1       -0.0513
     12 C           7.8003    0.0729    0.0000 C.ar    1  UNL1       -0.0105
     13 C           8.6663   -0.4270    0.0000 C.ar    1  UNL1       -0.0432
     14 C           8.6663    1.5730    0.0000 C.ar    1  UNL1       -0.0187
     15 C           6.9343   -0.4270    0.0000 C.ar    1  UNL1        0.0643
     16 C           7.8003    1.0730    0.0000 C.ar    1  UNL1       -0.0503
     17 C           6.0682    0.0729    0.0000 C.ar    1  UNL1        0.2001
     18 C           5.2022   -0.4270    0.0000 C.ar    1  UNL1        0.0648
     19 C           5.2022   -1.4270    0.0000 C.ar    1  UNL1        0.1419
     20 C           6.9343   -1.4270    0.0000 C.ar    1  UNL1        0.1038
     21 C           4.3083    0.1076    0.0000 C.ar    1  UNL1       -0.0439
     22 C           4.3083   -1.9617    0.0000 C.ar    1  UNL1        0.0228
     23 C           3.4022   -0.4062    0.0000 C.ar    1  UNL1       -0.0193
     24 C           3.4022   -1.4479    0.0000 C.ar    1  UNL1        0.1204
     25 H          11.8681   -0.2599    0.0000 H       1  UNL1        0.0611
     26 H          12.3671    1.6538    0.0000 H       1  UNL1        0.0271
     27 H          12.1369    2.4998    0.0000 H       1  UNL1        0.0271
     28 H          11.2909    2.2696    0.0000 H       1  UNL1        0.0271
     29 H          12.3347    0.4776    0.0000 H       1  UNL1        0.0271
     30 H          12.9524    1.1000    0.0000 H       1  UNL1        0.0271
     31 H          12.3300    1.7176    0.0000 H       1  UNL1        0.0271
     32 H          10.4191   -1.0817    0.0000 H       1  UNL1        0.0623
     33 H           8.6663   -1.0470    0.0000 H       1  UNL1        0.0631
     34 H           8.6663    2.1930    0.0000 H       1  UNL1        0.0654
     35 H           7.2634    1.3829    0.0000 H       1  UNL1        0.0625
     36 H           7.4712   -1.7370    0.0000 H       1  UNL1        0.1037
     37 H           4.3154    0.7276    0.0000 H       1  UNL1        0.0627
     38 H           4.3154   -2.5817    0.0000 H       1  UNL1        0.0691
     39 H           2.8665   -0.0942    0.0000 H       1  UNL1        0.0654
     40 H           2.0000   -1.6433    0.0000 H       1  UNL1        0.2921
@<TRIPOS>BOND
     1     1     5    1
     2     1     7    1
     3     2    19   ar
     4     2    20   ar
     5     3    17    2
     6     4    24    1
     7     4    40    1
     8     5     8    1
     9     5     9    1
    10     5    10    1
    11     6     7   ar
    12     6    11    1
    13     6    13   ar
    14     7    14   ar
    15     8    11    2
    16     8    25    1
    17     9    29    1
    18     9    30    1
    19     9    31    1
    20    10    26    1
    21    10    27    1
    22    10    28    1
    23    11    32    1
    24    12    13   ar
    25    12    15    1
    26    12    16   ar
    27    13    33    1
    28    14    16   ar
    29    14    34    1
    30    15    17   ar
    31    15    20   ar
    32    16    35    1
    33    17    18   ar
    34    18    19   ar
    35    18    21   ar
    36    19    22   ar
    37    20    36    1
    38    21    23   ar
    39    21    37    1
    40    22    24   ar
    41    22    38    1
    42    23    24   ar
    43    23    39    1
