@<TRIPOS>MOLECULE
IMPHY006498
 22 21 0 0 0
SMALL
GASTEIGER

@<TRIPOS>ATOM
      1 S           6.0010   -0.5000    0.0000 S.3     1  UNL1       -0.1745
      2 O           2.5369   -0.5000    0.0000 O.3     1  UNL1       -0.3947
      3 C           4.2690   -0.5000    0.0000 C.3     1  UNL1       -0.0091
      4 C           5.1350   -0.0000    0.0000 C.3     1  UNL1        0.0067
      5 C           5.1350    1.0000    0.0000 C.3     1  UNL1       -0.0439
      6 C           3.4030   -0.0000    0.0000 C.3     1  UNL1        0.0478
      7 C           4.2690   -1.5000    0.0000 C.3     1  UNL1       -0.0593
      8 C           6.0010    1.5000    0.0000 C.3     1  UNL1       -0.0643
      9 H           5.0051   -0.9250    0.0000 H       1  UNL1        0.0331
     10 H           5.8711    0.4250    0.0000 H       1  UNL1        0.0413
     11 H           4.9230    1.5826    0.0000 H       1  UNL1        0.0273
     12 H           4.5244    0.8923    0.0000 H       1  UNL1        0.0273
     13 H           3.8015    0.4749    0.0000 H       1  UNL1        0.0560
     14 H           3.0044    0.4749    0.0000 H       1  UNL1        0.0560
     15 H           3.6490   -1.5000    0.0000 H       1  UNL1        0.0233
     16 H           4.2690   -2.1200    0.0000 H       1  UNL1        0.0233
     17 H           4.8890   -1.5000    0.0000 H       1  UNL1        0.0233
     18 H           6.3110    0.9631    0.0000 H       1  UNL1        0.0230
     19 H           6.5380    1.8100    0.0000 H       1  UNL1        0.0230
     20 H           5.6910    2.0369    0.0000 H       1  UNL1        0.0230
     21 H           6.5380   -0.1900    0.0000 H       1  UNL1        0.1019
     22 H           2.0000   -0.1900    0.0000 H       1  UNL1        0.2094
@<TRIPOS>BOND
     1     1     4    1
     2     1    21    1
     3     2     6    1
     4     2    22    1
     5     3     4    1
     6     3     6    1
     7     3     7    1
     8     3     9    1
     9     4     5    1
    10     4    10    1
    11     5     8    1
    12     5    11    1
    13     5    12    1
    14     6    13    1
    15     6    14    1
    16     7    15    1
    17     7    16    1
    18     7    17    1
    19     8    18    1
    20     8    19    1
    21     8    20    1
