@<TRIPOS>MOLECULE
IMPHY004819
 55 58 0 0 0
SMALL
GASTEIGER

@<TRIPOS>ATOM
      1 O           5.1350    0.5148    0.0000 O.3     1  UNL1       -0.3609
      2 O           6.8671    2.5148    0.0000 O.3     1  UNL1       -0.3862
      3 O           5.1350    3.5148    0.0000 O.3     1  UNL1       -0.3865
      4 O           3.4030    2.5148    0.0000 O.3     1  UNL1       -0.3865
      5 O           2.5369    1.0148    0.0000 O.3     1  UNL1       -0.3924
      6 O           6.0010   -0.9852    0.0000 O.3     1  UNL1       -0.4945
      7 O           7.7331    2.0148    0.0000 O.3     1  UNL1       -0.5054
      8 O           9.4931   -1.0199    0.0000 O.2     1  UNL1       -0.4544
      9 O           9.4815    2.0494    0.0000 O.2     1  UNL1       -0.2869
     10 O          12.1196   -3.5127    0.0000 O.3     1  UNL1       -0.5033
     11 O          13.8555   -2.5194    0.0000 O.3     1  UNL1       -0.5033
     12 C           6.0010    2.0148    0.0000 C.3     1  UNL1        0.1139
     13 C           5.1350    2.5148    0.0000 C.3     1  UNL1        0.1121
     14 C           6.0010    1.0148    0.0000 C.3     1  UNL1        0.1193
     15 C           4.2690    2.0148    0.0000 C.3     1  UNL1        0.1117
     16 C           4.2690    1.0148    0.0000 C.3     1  UNL1        0.1108
     17 C           6.8671    0.5148    0.0000 C.ar    1  UNL1        0.0676
     18 C           3.4030    0.5148    0.0000 C.3     1  UNL1        0.0729
     19 C           7.7331    1.0148    0.0000 C.ar    1  UNL1        0.1404
     20 C           6.8671   -0.4852    0.0000 C.ar    1  UNL1        0.1328
     21 C           8.5991    0.5148    0.0000 C.ar    1  UNL1        0.1058
     22 C           7.7331   -0.9852    0.0000 C.ar    1  UNL1        0.0237
     23 C           8.5991   -0.4852    0.0000 C.ar    1  UNL1        0.1463
     24 C           9.4931    1.0494    0.0000 C.ar    1  UNL1        0.1966
     25 C          10.3991   -0.5060    0.0000 C.ar    1  UNL1        0.1393
     26 C          10.3991    0.5356    0.0000 C.ar    1  UNL1        0.0288
     27 C           6.0010   -1.9852    0.0000 C.3     1  UNL1        0.0788
     28 C          11.2632   -1.0094    0.0000 C.ar    1  UNL1        0.0211
     29 C          11.2594   -2.0094    0.0000 C.ar    1  UNL1       -0.0059
     30 C          12.1312   -0.5127    0.0000 C.ar    1  UNL1       -0.0474
     31 C          12.1235   -2.5127    0.0000 C.ar    1  UNL1        0.1589
     32 C          12.9953   -1.0161    0.0000 C.ar    1  UNL1       -0.0159
     33 C          12.9914   -2.0160    0.0000 C.ar    1  UNL1        0.1583
     34 H           6.5380    1.7048    0.0000 H       1  UNL1        0.0649
     35 H           5.6720    2.8248    0.0000 H       1  UNL1        0.0647
     36 H           6.0010    0.1648    0.0000 H       1  UNL1        0.0676
     37 H           4.2690    2.6348    0.0000 H       1  UNL1        0.0647
     38 H           4.2690    0.3948    0.0000 H       1  UNL1        0.0646
     39 H           3.0044    0.0398    0.0000 H       1  UNL1        0.0584
     40 H           3.8015    0.0398    0.0000 H       1  UNL1        0.0584
     41 H           6.8671    3.1348    0.0000 H       1  UNL1        0.2100
     42 H           4.5981    3.8248    0.0000 H       1  UNL1        0.2100
     43 H           3.4030    3.1348    0.0000 H       1  UNL1        0.2100
     44 H           7.7331   -1.6052    0.0000 H       1  UNL1        0.0691
     45 H           2.0000    0.7048    0.0000 H       1  UNL1        0.2095
     46 H           8.2700    2.3248    0.0000 H       1  UNL1        0.2922
     47 H          10.9349    0.8477    0.0000 H       1  UNL1        0.0693
     48 H           5.3810   -1.9852    0.0000 H       1  UNL1        0.0660
     49 H           6.0010   -2.6052    0.0000 H       1  UNL1        0.0660
     50 H           6.6210   -1.9852    0.0000 H       1  UNL1        0.0660
     51 H          10.7212   -2.3173    0.0000 H       1  UNL1        0.0662
     52 H          12.1336    0.1073    0.0000 H       1  UNL1        0.0626
     53 H          13.5334   -0.7081    0.0000 H       1  UNL1        0.0655
     54 H          12.6553   -3.8248    0.0000 H       1  UNL1        0.2923
     55 H          14.3936   -2.2115    0.0000 H       1  UNL1        0.2923
@<TRIPOS>BOND
     1     1    14    1
     2     1    16    1
     3    12     2    1
     4     2    41    1
     5    13     3    1
     6     3    42    1
     7    15     4    1
     8     4    43    1
     9     5    18    1
    10     5    45    1
    11     6    20    1
    12     6    27    1
    13     7    19    1
    14     7    46    1
    15     8    23   ar
    16     8    25   ar
    17     9    24    2
    18    10    31    1
    19    10    54    1
    20    11    33    1
    21    11    55    1
    22    12    13    1
    23    12    14    1
    24    12    34    1
    25    13    15    1
    26    13    35    1
    27    14    17    1
    28    14    36    1
    29    15    16    1
    30    15    37    1
    31    16    18    1
    32    16    38    1
    33    17    19   ar
    34    17    20   ar
    35    18    39    1
    36    18    40    1
    37    19    21   ar
    38    20    22   ar
    39    21    23   ar
    40    21    24   ar
    41    22    23   ar
    42    22    44    1
    43    24    26   ar
    44    25    26   ar
    45    25    28    1
    46    26    47    1
    47    27    48    1
    48    27    49    1
    49    27    50    1
    50    28    29   ar
    51    28    30   ar
    52    29    31   ar
    53    29    51    1
    54    30    32   ar
    55    30    52    1
    56    31    33   ar
    57    32    33   ar
    58    32    53    1
