@<TRIPOS>MOLECULE
IMPHY010549
 28 31 0 0 0
SMALL
GASTEIGER

@<TRIPOS>ATOM
      1 O           3.4501   -1.3511    0.0000 O.3     1  UNL1       -0.4485
      2 O           2.0379   -2.4287    0.0000 O.2     1  UNL1       -0.2456
      3 N           4.7096    1.0424    0.0000 N.3     1  UNL1       -0.2888
      4 C           4.4870    0.0675    0.0000 C.3     1  UNL1        0.0551
      5 C           3.5861   -0.3664    0.0000 C.3     1  UNL1        0.1560
      6 C           4.0861    1.8243    0.0000 C.3     1  UNL1        0.0335
      7 C           3.4792    0.8104    0.0000 C.3     1  UNL1        0.0122
      8 C           5.3417   -0.4401    0.0000 C.3     1  UNL1       -0.0321
      9 C           5.6999    1.1290    0.0000 C.3     1  UNL1       -0.0001
     10 C           6.0898    0.2146    0.0000 C.3     1  UNL1       -0.0386
     11 C           2.6851    0.0675    0.0000 C.2     1  UNL1        0.0039
     12 C           3.0861    1.8243    0.0000 C.2     1  UNL1       -0.0665
     13 C           2.4626    1.0424    0.0000 C.2     1  UNL1       -0.0570
     14 C           2.0000   -0.6528    0.0000 C.2     1  UNL1        0.0295
     15 C           2.4718   -1.5278    0.0000 C.2     1  UNL1        0.3332
     16 H           4.2979   -0.7612    0.0000 H       1  UNL1        0.0505
     17 H           4.2752    2.6530    0.0000 H       1  UNL1        0.0508
     18 H           3.0714    1.2774    0.0000 H       1  UNL1        0.0326
     19 H           2.9092    0.5666    0.0000 H       1  UNL1        0.0326
     20 H           4.9708   -0.9370    0.0000 H       1  UNL1        0.0282
     21 H           5.7968   -0.8612    0.0000 H       1  UNL1        0.0282
     22 H           6.2926    1.3109    0.0000 H       1  UNL1        0.0427
     23 H           5.5813    1.7375    0.0000 H       1  UNL1        0.0427
     24 H           6.4468   -0.2923    0.0000 H       1  UNL1        0.0278
     25 H           6.6314    0.5163    0.0000 H       1  UNL1        0.0278
     26 H           2.8171    2.3829    0.0000 H       1  UNL1        0.0588
     27 H           1.8581    1.1804    0.0000 H       1  UNL1        0.0619
     28 H           1.3855   -0.5706    0.0000 H       1  UNL1        0.0693
@<TRIPOS>BOND
     1     5     1    1
     2     1    15    1
     3     2    15    2
     4     3     4    1
     5     3     6    1
     6     3     9    1
     7     4     5    1
     8     4     8    1
     9     4    16    1
    10     5     7    1
    11     5    11    1
    12     6     7    1
    13     6    12    1
    14     6    17    1
    15     7    18    1
    16     7    19    1
    17     8    10    1
    18     8    20    1
    19     8    21    1
    20     9    10    1
    21     9    22    1
    22     9    23    1
    23    10    24    1
    24    10    25    1
    25    11    13    1
    26    11    14    2
    27    12    13    2
    28    12    26    1
    29    13    27    1
    30    14    15    1
    31    14    28    1
