@<TRIPOS>MOLECULE
IMPHY006986
 39 41 0 0 0
SMALL
GASTEIGER

@<TRIPOS>ATOM
      1 O           6.3981   -1.0223    0.0000 O.2     1  UNL1       -0.4544
      2 O           4.6497    2.0123    0.0000 O.3     1  UNL1       -0.4942
      3 O           2.8680   -1.0464    0.0000 O.3     1  UNL1       -0.4949
      4 O           6.3981    1.9777    0.0000 O.2     1  UNL1       -0.2869
      5 O          10.7282   -2.5223    0.0000 O.3     1  UNL1       -0.4951
      6 C           5.5320    0.4777    0.0000 C.ar    1  UNL1        0.1057
      7 C           5.5320   -0.5223    0.0000 C.ar    1  UNL1        0.1462
      8 C           7.2641   -0.5223    0.0000 C.ar    1  UNL1        0.1392
      9 C           4.6381    1.0124    0.0000 C.ar    1  UNL1        0.1379
     10 C           6.3981    0.9777    0.0000 C.ar    1  UNL1        0.1966
     11 C           8.1301   -1.0223    0.0000 C.ar    1  UNL1        0.0176
     12 C           7.2641    0.4777    0.0000 C.ar    1  UNL1        0.0288
     13 C           4.6381   -1.0570    0.0000 C.ar    1  UNL1        0.0233
     14 C           3.7320   -0.5431    0.0000 C.ar    1  UNL1        0.1271
     15 C           3.7320    0.4985    0.0000 C.ar    1  UNL1        0.0227
     16 C           8.9962   -0.5223    0.0000 C.ar    1  UNL1       -0.0476
     17 C           8.1301   -2.0223    0.0000 C.ar    1  UNL1       -0.0476
     18 C           9.8622   -1.0223    0.0000 C.ar    1  UNL1       -0.0193
     19 C           8.9962   -2.5223    0.0000 C.ar    1  UNL1       -0.0193
     20 C           9.8622   -2.0223    0.0000 C.ar    1  UNL1        0.1201
     21 C           3.7895    2.5223    0.0000 C.3     1  UNL1        0.0788
     22 C           2.0000   -0.5498    0.0000 C.3     1  UNL1        0.0788
     23 C          11.5942   -2.0223    0.0000 C.3     1  UNL1        0.0788
     24 H           7.8010    0.7877    0.0000 H       1  UNL1        0.0693
     25 H           4.6453   -1.6769    0.0000 H       1  UNL1        0.0691
     26 H           3.1963    0.8106    0.0000 H       1  UNL1        0.0691
     27 H           8.9962    0.0977    0.0000 H       1  UNL1        0.0626
     28 H           7.5932   -2.3323    0.0000 H       1  UNL1        0.0626
     29 H          10.3991   -0.7123    0.0000 H       1  UNL1        0.0654
     30 H           8.9962   -3.1423    0.0000 H       1  UNL1        0.0654
     31 H           4.1057    3.0556    0.0000 H       1  UNL1        0.0660
     32 H           3.2562    2.8385    0.0000 H       1  UNL1        0.0660
     33 H           3.4733    1.9890    0.0000 H       1  UNL1        0.0660
     34 H           2.3079   -0.0117    0.0000 H       1  UNL1        0.0660
     35 H           1.4619   -0.2419    0.0000 H       1  UNL1        0.0660
     36 H           1.6921   -1.0879    0.0000 H       1  UNL1        0.0660
     37 H          11.9042   -2.5592    0.0000 H       1  UNL1        0.0660
     38 H          12.1312   -1.7123    0.0000 H       1  UNL1        0.0660
     39 H          11.2842   -1.4854    0.0000 H       1  UNL1        0.0660
@<TRIPOS>BOND
     1     1     7   ar
     2     1     8   ar
     3     2     9    1
     4     2    21    1
     5     3    14    1
     6     3    22    1
     7     4    10    2
     8     5    20    1
     9     5    23    1
    10     6     7   ar
    11     6     9   ar
    12     6    10   ar
    13     7    13   ar
    14     8    11    1
    15     8    12   ar
    16     9    15   ar
    17    10    12   ar
    18    11    16   ar
    19    11    17   ar
    20    12    24    1
    21    13    14   ar
    22    13    25    1
    23    14    15   ar
    24    15    26    1
    25    16    18   ar
    26    16    27    1
    27    17    19   ar
    28    17    28    1
    29    18    20   ar
    30    18    29    1
    31    19    20   ar
    32    19    30    1
    33    21    31    1
    34    21    32    1
    35    21    33    1
    36    22    34    1
    37    22    35    1
    38    22    36    1
    39    23    37    1
    40    23    38    1
    41    23    39    1
