@<TRIPOS>MOLECULE
IMPHY010707
 31 33 0 0 0
SMALL
GASTEIGER

@<TRIPOS>ATOM
      1 O           6.0682   -0.6154    0.0000 O.2     1  UNL1       -0.4506
      2 O           7.8003    1.3846    0.0000 O.3     1  UNL1       -0.5007
      3 O           4.3198    2.4192    0.0000 O.3     1  UNL1       -0.5058
      4 O           6.0682    2.3846    0.0000 O.2     1  UNL1       -0.2830
      5 O           2.5381   -0.6395    0.0000 O.3     1  UNL1       -0.5065
      6 O           6.9343   -2.1154    0.0000 O.3     1  UNL1       -0.5061
      7 C           5.2022    0.8846    0.0000 C.ar    1  UNL1        0.1092
      8 C           5.2022   -0.1154    0.0000 C.ar    1  UNL1        0.1465
      9 C           6.9343   -0.1154    0.0000 C.ar    1  UNL1        0.1841
     10 C           7.8003   -0.6154    0.0000 C.ar    1  UNL1        0.0624
     11 C           6.0682    1.3846    0.0000 C.ar    1  UNL1        0.2379
     12 C           6.9343    0.8846    0.0000 C.ar    1  UNL1        0.2083
     13 C           4.3083    1.4193    0.0000 C.ar    1  UNL1        0.1348
     14 C           4.3083   -0.6501    0.0000 C.ar    1  UNL1        0.0231
     15 C           3.4022   -0.1362    0.0000 C.ar    1  UNL1        0.1239
     16 C           3.4022    0.9054    0.0000 C.ar    1  UNL1        0.0223
     17 C           7.8003   -1.6154    0.0000 C.ar    1  UNL1        0.1276
     18 C           8.6663   -0.1154    0.0000 C.ar    1  UNL1       -0.0474
     19 C           8.6663   -2.1154    0.0000 C.ar    1  UNL1       -0.0195
     20 C           9.5323   -0.6154    0.0000 C.ar    1  UNL1       -0.0609
     21 C           9.5323   -1.6154    0.0000 C.ar    1  UNL1       -0.0583
     22 H           4.3154   -1.2700    0.0000 H       1  UNL1        0.0691
     23 H           2.8665    1.2175    0.0000 H       1  UNL1        0.0691
     24 H           8.6663    0.5046    0.0000 H       1  UNL1        0.0626
     25 H           8.6663   -2.7354    0.0000 H       1  UNL1        0.0654
     26 H          10.0693   -0.3054    0.0000 H       1  UNL1        0.0618
     27 H          10.0693   -1.9254    0.0000 H       1  UNL1        0.0619
     28 H           7.8003    2.0046    0.0000 H       1  UNL1        0.2924
     29 H           3.7865    2.7354    0.0000 H       1  UNL1        0.2922
     30 H           2.0000   -0.3316    0.0000 H       1  UNL1        0.2921
     31 H           6.9343   -2.7354    0.0000 H       1  UNL1        0.2922
@<TRIPOS>BOND
     1     1     8   ar
     2     1     9   ar
     3     2    12    1
     4     2    28    1
     5     3    13    1
     6     3    29    1
     7     4    11    2
     8     5    15    1
     9     5    30    1
    10     6    17    1
    11     6    31    1
    12     7     8   ar
    13     7    11   ar
    14     7    13   ar
    15     8    14   ar
    16     9    10    1
    17     9    12   ar
    18    10    17   ar
    19    10    18   ar
    20    11    12   ar
    21    13    16   ar
    22    14    15   ar
    23    14    22    1
    24    15    16   ar
    25    16    23    1
    26    17    19   ar
    27    18    20   ar
    28    18    24    1
    29    19    21   ar
    30    19    25    1
    31    20    21   ar
    32    20    26    1
    33    21    27    1
