@<TRIPOS>MOLECULE
IMPHY005329
 41 41 0 0 0
SMALL
GASTEIGER

@<TRIPOS>ATOM
      1 O           3.4483    5.1164    0.0000 O.3     1  UNL1       -0.4795
      2 O           4.6730    3.8916    0.0000 O.2     1  UNL1       -0.2492
      3 O           5.8284   -0.3851    0.0000 O.3     1  UNL1       -0.4795
      4 OXT         5.3801    1.2879    0.0000 O.2     1  UNL1       -0.2492
      5 O           6.0179   -3.0240    0.0000 O.3     1  UNL1       -0.3806
      6 O           5.5003   -4.9559    0.0000 O.3     1  UNL1       -0.4788
      7 O           3.8272   -4.5076    0.0000 O.2     1  UNL1       -0.2481
      8 N           3.0000    2.4433    0.0000 N.3     1  UNL1       -0.2898
      9 N           3.8966   -0.9027    0.0000 N.3     1  UNL1       -0.3040
     10 C           3.0000    3.4433    0.0000 C.3     1  UNL1        0.1093
     11 C           2.0000    3.4433    0.0000 C.3     1  UNL1       -0.0141
     12 C           2.0000    2.4433    0.0000 C.3     1  UNL1        0.0016
     13 C           3.7071    1.7362    0.0000 C.3     1  UNL1        0.0016
     14 C           3.4483    0.7703    0.0000 C.3     1  UNL1       -0.0143
     15 CA          4.1554    0.0632    0.0000 C.3     1  UNL1        0.1069
     16 C           3.7071    4.1504    0.0000 C.2     1  UNL1        0.3222
     17 C           4.6037   -1.6098    0.0000 C.3     1  UNL1       -0.0005
     18 C           5.1213    0.3220    0.0000 C.2     1  UNL1        0.3220
     19 C           4.3449   -2.5758    0.0000 C.3     1  UNL1       -0.0038
     20 C           5.0520   -3.2829    0.0000 C.3     1  UNL1        0.1525
     21 C           4.7932   -4.2488    0.0000 C.2     1  UNL1        0.3337
     22 H           3.5728    3.2061    0.0000 H       1  UNL1        0.0579
     23 H           2.0000    4.0633    0.0000 H       1  UNL1        0.0298
     24 H           1.3800    3.4433    0.0000 H       1  UNL1        0.0298
     25 H           1.3800    2.4433    0.0000 H       1  UNL1        0.0427
     26 H           2.0000    1.8233    0.0000 H       1  UNL1        0.0427
     27 H           4.2690    1.4742    0.0000 H       1  UNL1        0.0427
     28 H           4.0627    2.2441    0.0000 H       1  UNL1        0.0427
     29 H           2.8864    1.0323    0.0000 H       1  UNL1        0.0298
     30 H           3.0927    0.2624    0.0000 H       1  UNL1        0.0298
     31 HA          4.5938   -0.3752    0.0000 H       1  UNL1        0.0576
     32 H           3.2977   -1.0632    0.0000 H       1  UNL1        0.1227
     33 H           5.1656   -1.8719    0.0000 H       1  UNL1        0.0425
     34 H           4.9593   -1.1020    0.0000 H       1  UNL1        0.0425
     35 H           3.7830   -2.3137    0.0000 H       1  UNL1        0.0308
     36 H           3.9892   -3.0836    0.0000 H       1  UNL1        0.0308
     37 H           3.8867    5.5548    0.0000 H       1  UNL1        0.2951
     38 H           5.4904   -3.7213    0.0000 H       1  UNL1        0.0710
     39 H           6.4273   -0.2246    0.0000 H       1  UNL1        0.2951
     40 H           6.4563   -3.4625    0.0000 H       1  UNL1        0.2105
     41 H           5.3398   -5.5548    0.0000 H       1  UNL1        0.2951
@<TRIPOS>BOND
     1     1    16    1
     2     1    37    1
     3     2    16    2
     4     3    18    1
     5     3    39    1
     6     4    18    2
     7    20     5    1
     8     5    40    1
     9     6    21    1
    10     6    41    1
    11     7    21    2
    12     8    10    1
    13     8    12    1
    14     8    13    1
    15    15     9    1
    16     9    17    1
    17     9    32    1
    18    10    11    1
    19    10    16    1
    20    10    22    1
    21    11    12    1
    22    11    23    1
    23    11    24    1
    24    12    25    1
    25    12    26    1
    26    13    14    1
    27    13    27    1
    28    13    28    1
    29    14    15    1
    30    14    29    1
    31    14    30    1
    32    15    18    1
    33    15    31    1
    34    17    19    1
    35    17    33    1
    36    17    34    1
    37    19    20    1
    38    19    35    1
    39    19    36    1
    40    20    21    1
    41    20    38    1
