@<TRIPOS>MOLECULE
IMPHY009191
 85 90 0 0 0
SMALL
GASTEIGER

@<TRIPOS>ATOM
      1 O           6.4521   -2.1331    0.0000 O.3     1  UNL1       -0.4864
      2 O           7.8473    1.8184    0.0000 O.2     1  UNL1       -0.2738
      3 O           8.1258   -0.1667    0.0000 O.2     1  UNL1       -0.2736
      4 O          11.5024    0.7827    0.0000 O.2     1  UNL1       -0.2734
      5 O           9.8287   -4.0825    0.0000 O.3     1  UNL1       -0.4945
      6 N           7.0880    0.2616    0.0000 N.am    1  UNL1       -0.2851
      7 N           8.9627   -0.6836    0.0000 N.am    1  UNL1       -0.3020
      8 N           5.2905    1.1383    0.0000 N.3     1  UNL1       -0.2973
      9 N           4.9792    4.1126    0.0000 N.ar    1  UNL1       -0.3578
     10 N          10.6364   -0.6836    0.0000 N.am    1  UNL1       -0.2904
     11 C           7.2890   -0.6836    0.0000 C.3     1  UNL1        0.1390
     12 C           6.4521   -1.1668    0.0000 C.3     1  UNL1        0.1285
     13 C           5.7340   -0.5202    0.0000 C.3     1  UNL1        0.0024
     14 C           6.1270    0.3626    0.0000 C.3     1  UNL1        0.0191
     15 C           7.0183    1.2592    0.0000 C.2     1  UNL1        0.2339
     16 C           6.1195    1.6975    0.0000 C.3     1  UNL1        0.0923
     17 C           8.1258   -1.1668    0.0000 C.2     1  UNL1        0.2378
     18 C           6.0497    2.6951    0.0000 C.3     1  UNL1        0.0117
     19 C           8.9627    0.2827    0.0000 C.3     1  UNL1        0.1037
     20 C           7.2890   -2.6162    0.0000 C.ar    1  UNL1        0.1218
     21 C           5.1510    3.1335    0.0000 C.ar    1  UNL1        0.0189
     22 C           8.4627    1.1488    0.0000 C.3     1  UNL1       -0.0006
     23 C           4.3917    1.5767    0.0000 C.3     1  UNL1       -0.0123
     24 C           5.3602    0.1408    0.0000 C.3     1  UNL1       -0.0123
     25 C           4.2736    2.6660    0.0000 C.ar    1  UNL1       -0.0334
     26 C          10.6364    0.2827    0.0000 C.2     1  UNL1        0.2374
     27 C           8.1258   -2.1331    0.0000 C.ar    1  UNL1       -0.0092
     28 C           7.2890   -3.5825    0.0000 C.ar    1  UNL1       -0.0164
     29 C           3.9951    4.2535    0.0000 C.ar    1  UNL1        0.0467
     30 C           3.5568    3.3547    0.0000 C.ar    1  UNL1       -0.0001
     31 C           8.9627    2.0148    0.0000 C.ar    1  UNL1       -0.0451
     32 C           8.9627   -2.6162    0.0000 C.ar    1  UNL1        0.0213
     33 C           8.1258   -4.0657    0.0000 C.ar    1  UNL1       -0.0159
     34 C           8.9627   -3.5825    0.0000 C.ar    1  UNL1        0.1275
     35 C           3.4359    5.0825    0.0000 C.ar    1  UNL1       -0.0378
     36 C           2.5592    3.2849    0.0000 C.ar    1  UNL1       -0.0526
     37 C           9.7995   -2.1331    0.0000 C.2     1  UNL1       -0.0371
     38 C           9.7995   -1.1668    0.0000 C.2     1  UNL1       -0.0030
     39 C           9.9627    2.0148    0.0000 C.ar    1  UNL1       -0.0585
     40 C           8.4626    2.8808    0.0000 C.ar    1  UNL1       -0.0585
     41 C           2.4384    5.0128    0.0000 C.ar    1  UNL1       -0.0598
     42 C           2.0000    4.1140    0.0000 C.ar    1  UNL1       -0.0611
     43 C          10.4627    2.8808    0.0000 C.ar    1  UNL1       -0.0615
     44 C           8.9626    3.7468    0.0000 C.ar    1  UNL1       -0.0615
     45 C           9.9626    3.7468    0.0000 C.ar    1  UNL1       -0.0617
     46 C           9.8287   -5.0825    0.0000 C.3     1  UNL1        0.0788
     47 H           7.7905   -0.3192    0.0000 H       1  UNL1        0.0634
     48 H           5.8857   -1.4189    0.0000 H       1  UNL1        0.0757
     49 H           5.1971   -0.2102    0.0000 H       1  UNL1        0.0317
     50 H           5.3696   -1.0218    0.0000 H       1  UNL1        0.0317
     51 H           6.2559    0.9691    0.0000 H       1  UNL1        0.0466
     52 H           5.5374    0.5542    0.0000 H       1  UNL1        0.0466
     53 H           6.1628    1.0790    0.0000 H       1  UNL1        0.0562
     54 H           6.6663    2.6303    0.0000 H       1  UNL1        0.0347
     55 H           6.2206    3.2911    0.0000 H       1  UNL1        0.0347
     56 H           9.4990   -0.3726    0.0000 H       1  UNL1        0.1495
     57 H           8.3638    0.1223    0.0000 H       1  UNL1        0.0598
     58 H           7.9877    1.5473    0.0000 H       1  UNL1        0.0336
     59 H           7.9877    0.7502    0.0000 H       1  UNL1        0.0336
     60 H           4.7417    0.0975    0.0000 H       1  UNL1        0.0391
     61 H           5.4035   -0.4777    0.0000 H       1  UNL1        0.0391
     62 H           5.9787    0.1840    0.0000 H       1  UNL1        0.0391
     63 H           4.6635    2.1340    0.0000 H       1  UNL1        0.0391
     64 H           3.8344    1.8485    0.0000 H       1  UNL1        0.0391
     65 H           4.1199    1.0195    0.0000 H       1  UNL1        0.0391
     66 H           5.4106    4.5578    0.0000 H       1  UNL1        0.1656
     67 H           4.1884    2.0519    0.0000 H       1  UNL1        0.0641
     68 H           8.1258   -1.5131    0.0000 H       1  UNL1        0.0661
     69 H           6.7520   -3.8925    0.0000 H       1  UNL1        0.0655
     70 H           8.1258   -4.6857    0.0000 H       1  UNL1        0.0655
     71 H          11.1733   -0.9936    0.0000 H       1  UNL1        0.1543
     72 H           3.7077    5.6398    0.0000 H       1  UNL1        0.0638
     73 H           2.2874    2.7277    0.0000 H       1  UNL1        0.0624
     74 H          10.3364   -2.4431    0.0000 H       1  UNL1        0.0637
     75 H          10.3364   -1.4767    0.0000 H       1  UNL1        0.0782
     76 H          10.2727    1.4779    0.0000 H       1  UNL1        0.0620
     77 H           7.8426    2.8808    0.0000 H       1  UNL1        0.0620
     78 H           2.0917    5.5268    0.0000 H       1  UNL1        0.0618
     79 H           1.3815    4.0707    0.0000 H       1  UNL1        0.0618
     80 H          11.0827    2.8808    0.0000 H       1  UNL1        0.0618
     81 H           8.6526    4.2838    0.0000 H       1  UNL1        0.0618
     82 H          10.2726    4.2838    0.0000 H       1  UNL1        0.0618
     83 H           9.2087   -5.0825    0.0000 H       1  UNL1        0.0660
     84 H           9.8287   -5.7025    0.0000 H       1  UNL1        0.0660
     85 H          10.4487   -5.0825    0.0000 H       1  UNL1        0.0660
@<TRIPOS>BOND
     1     1    12    1
     2     1    20    1
     3     2    15    2
     4     3    17    2
     5     4    26    2
     6     5    34    1
     7     5    46    1
     8     6    11    1
     9     6    14    1
    10     6    15   am
    11     7    17   am
    12     7    19    1
    13     7    56    1
    14     8    16    1
    15     8    23    1
    16     8    24    1
    17     9    21   ar
    18     9    29   ar
    19     9    66    1
    20    10    26   am
    21    10    38    1
    22    10    71    1
    23    11    12    1
    24    11    17    1
    25    11    47    1
    26    12    13    1
    27    12    48    1
    28    13    14    1
    29    13    49    1
    30    13    50    1
    31    14    51    1
    32    14    52    1
    33    15    16    1
    34    16    18    1
    35    16    53    1
    36    18    21    1
    37    18    54    1
    38    18    55    1
    39    19    22    1
    40    19    26    1
    41    19    57    1
    42    20    27   ar
    43    20    28   ar
    44    21    25   ar
    45    22    31    1
    46    22    58    1
    47    22    59    1
    48    23    63    1
    49    23    64    1
    50    23    65    1
    51    24    60    1
    52    24    61    1
    53    24    62    1
    54    25    30   ar
    55    25    67    1
    56    27    32   ar
    57    27    68    1
    58    28    33   ar
    59    28    69    1
    60    29    30   ar
    61    29    35   ar
    62    30    36   ar
    63    31    39   ar
    64    31    40   ar
    65    32    34   ar
    66    32    37    1
    67    33    34   ar
    68    33    70    1
    69    35    41   ar
    70    35    72    1
    71    36    42   ar
    72    36    73    1
    73    37    38    2
    74    37    74    1
    75    38    75    1
    76    39    43   ar
    77    39    76    1
    78    40    44   ar
    79    40    77    1
    80    41    42   ar
    81    41    78    1
    82    42    79    1
    83    43    45   ar
    84    43    80    1
    85    44    45   ar
    86    44    81    1
    87    45    82    1
    88    46    83    1
    89    46    84    1
    90    46    85    1
