@<TRIPOS>MOLECULE
IMPHY011683
 39 40 0 0 0
SMALL
GASTEIGER

@<TRIPOS>ATOM
      1 O           4.8913   -0.2735    0.0000 O.3     1  UNL1       -0.4536
      2 O           5.1701    1.4866    0.0000 O.2     1  UNL1       -0.2453
      3 C           4.0823   -0.8613    0.0000 C.3     1  UNL1        0.1269
      4 C           3.2733   -1.4491    0.0000 C.3     1  UNL1       -0.0029
      5 C           4.8913   -1.4491    0.0000 C.3     1  UNL1        0.0201
      6 C           3.5823   -2.4001    0.0000 C.3     1  UNL1       -0.0461
      7 C           4.5823   -2.4001    0.0000 C.3     1  UNL1       -0.0425
      8 C           3.2733   -0.2735    0.0000 C.3     1  UNL1        0.0200
      9 C           2.3222   -1.1400    0.0000 C.3     1  UNL1       -0.0588
     10 C           5.8424   -1.1400    0.0000 C.2     1  UNL1       -0.0728
     11 C           3.5823    0.6776    0.0000 C.2     1  UNL1        0.0391
     12 C           4.5823    0.6776    0.0000 C.2     1  UNL1        0.3358
     13 C           6.5855   -1.8092    0.0000 C.3     1  UNL1       -0.0436
     14 C           2.9945    1.4866    0.0000 C.2     1  UNL1       -0.0656
     15 C           6.0503   -0.1619    0.0000 C.2     1  UNL1       -0.0993
     16 C           2.0000    1.3820    0.0000 C.3     1  UNL1       -0.0433
     17 C           3.4013    2.4001    0.0000 C.3     1  UNL1       -0.0433
     18 H           2.8349   -1.8875    0.0000 H       1  UNL1        0.0337
     19 H           5.3297   -1.8875    0.0000 H       1  UNL1        0.0384
     20 H           2.9759   -2.5290    0.0000 H       1  UNL1        0.0269
     21 H           3.6471   -3.0167    0.0000 H       1  UNL1        0.0269
     22 H           4.5175   -3.0167    0.0000 H       1  UNL1        0.0272
     23 H           5.1888   -2.5290    0.0000 H       1  UNL1        0.0272
     24 H           2.7069   -0.0213    0.0000 H       1  UNL1        0.0354
     25 H           2.9633   -0.8104    0.0000 H       1  UNL1        0.0354
     26 H           2.5138   -0.5504    0.0000 H       1  UNL1        0.0234
     27 H           1.7326   -0.9485    0.0000 H       1  UNL1        0.0234
     28 H           2.1306   -1.7297    0.0000 H       1  UNL1        0.0234
     29 H           6.1707   -2.2699    0.0000 H       1  UNL1        0.0274
     30 H           7.0463   -2.2240    0.0000 H       1  UNL1        0.0274
     31 H           7.0004   -1.3484    0.0000 H       1  UNL1        0.0274
     32 H           6.6400    0.0297    0.0000 H       1  UNL1        0.0534
     33 H           5.5895    0.2530    0.0000 H       1  UNL1        0.0534
     34 H           3.9677    2.1479    0.0000 H       1  UNL1        0.0274
     35 H           3.6534    2.9665    0.0000 H       1  UNL1        0.0274
     36 H           2.8349    2.6523    0.0000 H       1  UNL1        0.0274
     37 H           1.9352    1.9986    0.0000 H       1  UNL1        0.0274
     38 H           1.3834    1.3172    0.0000 H       1  UNL1        0.0274
     39 H           2.0648    0.7654    0.0000 H       1  UNL1        0.0274
@<TRIPOS>BOND
     1     3     1    1
     2     1    12    1
     3     2    12    2
     4     3     4    1
     5     3     5    1
     6     3     8    1
     7     4     6    1
     8     4     9    1
     9     4    18    1
    10     5     7    1
    11     5    10    1
    12     5    19    1
    13     6     7    1
    14     6    20    1
    15     6    21    1
    16     7    22    1
    17     7    23    1
    18     8    11    1
    19     8    24    1
    20     8    25    1
    21     9    26    1
    22     9    27    1
    23     9    28    1
    24    10    13    1
    25    10    15    2
    26    11    12    1
    27    11    14    2
    28    13    29    1
    29    13    30    1
    30    13    31    1
    31    14    16    1
    32    14    17    1
    33    15    32    1
    34    15    33    1
    35    16    37    1
    36    16    38    1
    37    16    39    1
    38    17    34    1
    39    17    35    1
    40    17    36    1
