@<TRIPOS>MOLECULE
IMPHY008297
 41 44 0 0 0
SMALL
GASTEIGER

@<TRIPOS>ATOM
      1 O           8.0944    0.4389    0.0000 O.3     1  UNL1       -0.4837
      2 O           6.4144   -2.8172    0.0000 O.3     1  UNL1       -0.5059
      3 O           4.6660   -2.7826    0.0000 O.2     1  UNL1       -0.2864
      4 O           9.6517    3.1286    0.0000 O.3     1  UNL1       -0.3906
      5 N           4.6660    0.2174    0.0000 N.ar    1  UNL1       -0.3423
      6 C           6.4260    0.2520    0.0000 C.ar    1  UNL1        0.0225
      7 C           6.6361    1.2659    0.0000 C.3     1  UNL1        0.0189
      8 C           7.6651    1.3812    0.0000 C.3     1  UNL1        0.1272
      9 C           5.5321   -0.2826    0.0000 C.ar    1  UNL1        0.0633
     10 C           7.3321   -0.2618    0.0000 C.ar    1  UNL1        0.1301
     11 C           5.5321   -1.2826    0.0000 C.ar    1  UNL1        0.0876
     12 C           3.8000   -0.2826    0.0000 C.ar    1  UNL1        0.0529
     13 C           7.3321   -1.3035    0.0000 C.ar    1  UNL1        0.0227
     14 C           8.1584    2.2511    0.0000 C.2     1  UNL1       -0.0113
     15 C           6.4260   -1.8173    0.0000 C.ar    1  UNL1        0.1331
     16 C           3.8000   -1.2826    0.0000 C.ar    1  UNL1        0.0459
     17 C           4.6660   -1.7826    0.0000 C.ar    1  UNL1        0.2006
     18 C           4.6660    1.2174    0.0000 C.3     1  UNL1        0.0124
     19 C           9.1584    2.2588    0.0000 C.3     1  UNL1        0.0684
     20 C           2.9061    0.2520    0.0000 C.ar    1  UNL1       -0.0375
     21 C           2.9061   -1.8173    0.0000 C.ar    1  UNL1       -0.0489
     22 C           7.6518    3.1132    0.0000 C.2     1  UNL1       -0.0938
     23 C           2.0000   -0.2618    0.0000 C.ar    1  UNL1       -0.0598
     24 C           2.0000   -1.3035    0.0000 C.ar    1  UNL1       -0.0610
     25 H           6.6322    1.8859    0.0000 H       1  UNL1        0.0354
     26 H           6.0191    1.3272    0.0000 H       1  UNL1        0.0354
     27 H           8.2845    1.3538    0.0000 H       1  UNL1        0.0785
     28 H           7.8678   -1.6155    0.0000 H       1  UNL1        0.0691
     29 H           5.2860    1.2174    0.0000 H       1  UNL1        0.0456
     30 H           4.6660    1.8374    0.0000 H       1  UNL1        0.0456
     31 H           4.0460    1.2174    0.0000 H       1  UNL1        0.0456
     32 H           9.0555    1.6474    0.0000 H       1  UNL1        0.0605
     33 H           9.7426    2.0512    0.0000 H       1  UNL1        0.0605
     34 H           2.9132    0.8720    0.0000 H       1  UNL1        0.0638
     35 H           2.9132   -2.4373    0.0000 H       1  UNL1        0.0625
     36 H           7.9576    3.6525    0.0000 H       1  UNL1        0.0536
     37 H           7.0318    3.1084    0.0000 H       1  UNL1        0.0536
     38 H           1.4643    0.0502    0.0000 H       1  UNL1        0.0618
     39 H           1.4643   -1.6155    0.0000 H       1  UNL1        0.0618
     40 H           6.9478   -3.1334    0.0000 H       1  UNL1        0.2922
     41 H          10.2717    3.1334    0.0000 H       1  UNL1        0.2098
@<TRIPOS>BOND
     1     1     8    1
     2     1    10    1
     3     2    15    1
     4     2    40    1
     5     3    17    2
     6     4    19    1
     7     4    41    1
     8     5     9   ar
     9     5    12   ar
    10     5    18    1
    11     6     7    1
    12     6     9   ar
    13     6    10   ar
    14     7     8    1
    15     7    25    1
    16     7    26    1
    17     8    14    1
    18     8    27    1
    19     9    11   ar
    20    10    13   ar
    21    11    15   ar
    22    11    17   ar
    23    12    16   ar
    24    12    20   ar
    25    13    15   ar
    26    13    28    1
    27    14    19    1
    28    14    22    2
    29    16    17   ar
    30    16    21   ar
    31    18    29    1
    32    18    30    1
    33    18    31    1
    34    19    32    1
    35    19    33    1
    36    20    23   ar
    37    20    34    1
    38    21    24   ar
    39    21    35    1
    40    22    36    1
    41    22    37    1
    42    23    24   ar
    43    23    38    1
    44    24    39    1
