@<TRIPOS>MOLECULE
IMPHY012166
 12 11 0 0 0
SMALL
GASTEIGER

@<TRIPOS>ATOM
      1 O           2.5369    0.7500    0.0000 O.3     1  UNL1       -0.4775
      2 O           3.4030   -0.7500    0.0000 O.2     1  UNL1       -0.2458
      3 C           5.1350    0.2500    0.0000 C.2     1  UNL1       -0.0804
      4 C           6.0010    0.7500    0.0000 C.3     1  UNL1       -0.0463
      5 C           4.2690    0.7500    0.0000 C.2     1  UNL1        0.0182
      6 C           3.4030    0.2500    0.0000 C.2     1  UNL1        0.3292
      7 H           5.1350   -0.3700    0.0000 H       1  UNL1        0.0571
      8 H           6.3110    0.2131    0.0000 H       1  UNL1        0.0272
      9 H           6.5380    1.0600    0.0000 H       1  UNL1        0.0272
     10 H           5.6910    1.2869    0.0000 H       1  UNL1        0.0272
     11 H           4.2690    1.3700    0.0000 H       1  UNL1        0.0685
     12 H           2.0000    0.4400    0.0000 H       1  UNL1        0.2954
@<TRIPOS>BOND
     1     1     6    1
     2     1    12    1
     3     2     6    2
     4     3     4    1
     5     3     5    2
     6     3     7    1
     7     4     8    1
     8     4     9    1
     9     4    10    1
    10     5     6    1
    11     5    11    1
