@<TRIPOS>MOLECULE
IMPHY004629
 49 53 0 0 0
SMALL
GASTEIGER

@<TRIPOS>ATOM
      1 O           5.3027    0.5374    0.0000 O.3     1  UNL1       -0.4570
      2 O           9.0640   -1.7746    0.0000 O.3     1  UNL1       -0.3843
      3 O           2.3580   -0.5632    0.0000 O.3     1  UNL1       -0.3907
      4 O           2.8808    1.0940    0.0000 O.2     1  UNL1       -0.2501
      5 O           6.3795    1.7658    0.0000 O.3     1  UNL1       -0.4804
      6 O           4.6536    1.6203    0.0000 O.2     1  UNL1       -0.2507
      7 C           6.3708   -0.3508    0.0000 C.3     1  UNL1       -0.0028
      8 C           5.1568   -1.1965    0.0000 C.3     1  UNL1        0.1216
      9 C           6.0688   -1.2180    0.0000 C.3     1  UNL1        0.0062
     10 C           4.8938   -0.3224    0.0000 C.3     1  UNL1        0.0306
     11 C           5.6426    0.1984    0.0000 C.3     1  UNL1        0.0702
     12 C           3.9765   -0.1064    0.0000 C.3     1  UNL1        0.0978
     13 C           7.0668   -1.1832    0.0000 C.3     1  UNL1       -0.0130
     14 C           8.1197   -1.4458    0.0000 C.3     1  UNL1        0.0874
     15 C           7.2376   -0.0462    0.0000 C.3     1  UNL1       -0.0224
     16 C           6.5591   -1.9946    0.0000 C.3     1  UNL1       -0.0431
     17 C           4.5190   -1.9110    0.0000 C.3     1  UNL1       -0.0098
     18 C           7.4714   -2.0958    0.0000 C.3     1  UNL1       -0.0197
     19 C           3.3314   -0.7926    0.0000 C.3     1  UNL1        0.0712
     20 C           8.0153   -0.5332    0.0000 C.2     1  UNL1       -0.0449
     21 C           3.6028   -1.6953    0.0000 C.3     1  UNL1       -0.0222
     22 C           3.7116    0.5374    0.0000 C.2     1  UNL1        0.3165
     23 C           5.5586    1.1949    0.0000 C.2     1  UNL1        0.3088
     24 C           2.9930    0.0748    0.0000 C.3     1  UNL1       -0.0466
     25 C           8.8189    0.0619    0.0000 C.2     1  UNL1       -0.0967
     26 H           5.6497   -1.9575    0.0000 H       1  UNL1        0.0345
     27 H           4.4587    0.4078    0.0000 H       1  UNL1        0.0359
     28 H           6.1854    0.4980    0.0000 H       1  UNL1        0.0423
     29 H           7.1096   -1.8018    0.0000 H       1  UNL1        0.0302
     30 H           6.4917   -1.4148    0.0000 H       1  UNL1        0.0302
     31 H           6.9071    0.4783    0.0000 H       1  UNL1        0.0316
     32 H           7.6754    0.3928    0.0000 H       1  UNL1        0.0316
     33 H           6.6296   -2.6105    0.0000 H       1  UNL1        0.0270
     34 H           5.9743   -2.2005    0.0000 H       1  UNL1        0.0270
     35 H           5.0433   -2.2419    0.0000 H       1  UNL1        0.0305
     36 H           4.2792   -2.4828    0.0000 H       1  UNL1        0.0305
     37 H           7.9968   -2.4249    0.0000 H       1  UNL1        0.0296
     38 H           7.2675   -2.6813    0.0000 H       1  UNL1        0.0296
     39 H           2.9064   -1.2441    0.0000 H       1  UNL1        0.0604
     40 H           3.5676   -2.3143    0.0000 H       1  UNL1        0.0292
     41 H           2.9871   -1.7680    0.0000 H       1  UNL1        0.0292
     42 H           2.8807   -0.5350    0.0000 H       1  UNL1        0.0241
     43 H           2.3833    0.1871    0.0000 H       1  UNL1        0.0241
     44 H           3.1054    0.6845    0.0000 H       1  UNL1        0.0241
     45 H           9.1802   -2.3836    0.0000 H       1  UNL1        0.2106
     46 H           8.7484    0.6779    0.0000 H       1  UNL1        0.0535
     47 H           9.3875   -0.1851    0.0000 H       1  UNL1        0.0535
     48 H           1.9331   -1.0147    0.0000 H       1  UNL1        0.2098
     49 H           6.3274    2.3836    0.0000 H       1  UNL1        0.2951
@<TRIPOS>BOND
     1     8     1    1
     2     1    22    1
     3    14     2    1
     4     2    45    1
     5    19     3    1
     6     3    48    1
     7     4    22    2
     8     5    23    1
     9     5    49    1
    10     6    23    2
    11     7     9    1
    12     7    11    1
    13     7    13    1
    14     7    15    1
    15     8     9    1
    16     8    10    1
    17     8    17    1
    18     9    16    1
    19     9    26    1
    20    10    11    1
    21    10    12    1
    22    10    27    1
    23    11    23    1
    24    11    28    1
    25    12    19    1
    26    12    22    1
    27    12    24    1
    28    13    14    1
    29    13    29    1
    30    13    30    1
    31    14    18    1
    32    14    20    1
    33    15    20    1
    34    15    31    1
    35    15    32    1
    36    16    18    1
    37    16    33    1
    38    16    34    1
    39    17    21    1
    40    17    35    1
    41    17    36    1
    42    18    37    1
    43    18    38    1
    44    19    21    1
    45    19    39    1
    46    20    25    2
    47    21    40    1
    48    21    41    1
    49    24    42    1
    50    24    43    1
    51    24    44    1
    52    25    46    1
    53    25    47    1
