@<TRIPOS>MOLECULE
IMPHY006437
 40 41 0 0 0
SMALL
GASTEIGER

@<TRIPOS>ATOM
      1 O           8.9887   -4.3244    0.0000 O.3     1  UNL1       -0.4795
      2 OXT         7.3423   -4.8625    0.0000 O.2     1  UNL1       -0.2492
      3 O           2.0000    4.2938    0.0000 O.3     1  UNL1       -0.3907
      4 N           6.4103   -2.0110    0.0000 N.ar    1  UNL1       -0.3129
      5 N           6.4103   -0.4015    0.0000 N.ar    1  UNL1       -0.2306
      6 N           4.5981    0.7938    0.0000 N.pl3   1  UNL1       -0.3237
      7 N           4.5981   -2.2062    0.0000 N.ar    1  UNL1       -0.2160
      8 N           8.3673   -2.4234    0.0000 N.3     1  UNL1       -0.3170
      9 N           3.7320   -0.7062    0.0000 N.ar    1  UNL1       -0.2186
     10 C           6.7210   -2.9615    0.0000 C.3     1  UNL1        0.0516
     11 CA          7.6995   -3.1677    0.0000 C.3     1  UNL1        0.1214
     12 C           5.4641   -1.7062    0.0000 C.ar    1  UNL1        0.1654
     13 C           5.4641   -0.7062    0.0000 C.ar    1  UNL1        0.1474
     14 C           6.9939   -1.2062    0.0000 C.ar    1  UNL1        0.0984
     15 C           4.5981   -0.2062    0.0000 C.ar    1  UNL1        0.1500
     16 C           3.7320    1.2938    0.0000 C.3     1  UNL1        0.0291
     17 C           8.0102   -4.1182    0.0000 C.2     1  UNL1        0.3235
     18 C           3.7320   -1.7062    0.0000 C.ar    1  UNL1        0.1205
     19 C           3.7320    2.2938    0.0000 C.2     1  UNL1       -0.0660
     20 C           2.8660    2.7938    0.0000 C.2     1  UNL1       -0.0500
     21 C           2.8660    3.7938    0.0000 C.3     1  UNL1        0.0651
     22 C           2.0000    2.2938    0.0000 C.3     1  UNL1       -0.0416
     23 H           6.1072   -3.0488    0.0000 H       1  UNL1        0.0513
     24 H           6.7004   -3.5812    0.0000 H       1  UNL1        0.0513
     25 HA          7.5069   -2.5784    0.0000 H       1  UNL1        0.0592
     26 H           7.6139   -1.2062    0.0000 H       1  UNL1        0.1029
     27 H           5.1350    1.1038    0.0000 H       1  UNL1        0.1478
     28 H           3.1215    1.4014    0.0000 H       1  UNL1        0.0505
     29 H           3.5200    0.7112    0.0000 H       1  UNL1        0.0505
     30 H1          8.9740   -2.5513    0.0000 H       1  UNL1        0.1190
     31 H2          8.1747   -1.8341    0.0000 H       1  UNL1        0.1190
     32 H           3.1951   -2.0162    0.0000 H       1  UNL1        0.1048
     33 H           4.2690    2.6038    0.0000 H       1  UNL1        0.0588
     34 H           3.4766    3.6861    0.0000 H       1  UNL1        0.0604
     35 H           3.0781    4.3764    0.0000 H       1  UNL1        0.0604
     36 H           1.6900    2.8307    0.0000 H       1  UNL1        0.0275
     37 H           1.4631    1.9838    0.0000 H       1  UNL1        0.0275
     38 H           2.3100    1.7568    0.0000 H       1  UNL1        0.0275
     39 H           9.1813   -4.9138    0.0000 H       1  UNL1        0.2951
     40 H           2.0000    4.9138    0.0000 H       1  UNL1        0.2098
@<TRIPOS>BOND
     1     1    17    1
     2     1    39    1
     3     2    17    2
     4     3    21    1
     5     3    40    1
     6     4    10    1
     7     4    12   ar
     8     4    14   ar
     9     5    13   ar
    10     5    14   ar
    11     6    15    1
    12     6    16    1
    13     6    27    1
    14     7    12   ar
    15     7    18   ar
    16    11     8    1
    17     8    30    1
    18     8    31    1
    19     9    15   ar
    20     9    18   ar
    21    10    11    1
    22    10    23    1
    23    10    24    1
    24    11    17    1
    25    11    25    1
    26    12    13   ar
    27    13    15   ar
    28    14    26    1
    29    16    19    1
    30    16    28    1
    31    16    29    1
    32    18    32    1
    33    19    20    2
    34    19    33    1
    35    20    21    1
    36    20    22    1
    37    21    34    1
    38    21    35    1
    39    22    36    1
    40    22    37    1
    41    22    38    1
