@<TRIPOS>MOLECULE
IMPHY001349
 41 43 0 0 0
SMALL
GASTEIGER

@<TRIPOS>ATOM
      1 O           6.3961   -0.5746    0.0000 O.3     1  UNL1       -0.4574
      2 O           5.5301   -2.0746    0.0000 O.2     1  UNL1       -0.2448
      3 O           3.7817   -2.1092    0.0000 O.3     1  UNL1       -0.5058
      4 O           2.0000    0.9495    0.0000 O.3     1  UNL1       -0.5066
      5 O          11.5923    2.4254    0.0000 O.3     1  UNL1       -0.4951
      6 C           6.3961    0.4254    0.0000 C.3     1  UNL1        0.1077
      7 C           5.5301    0.9254    0.0000 C.3     1  UNL1        0.0106
      8 C           7.2622    0.9254    0.0000 C.3     1  UNL1       -0.0114
      9 C           4.6641    0.4254    0.0000 C.ar    1  UNL1       -0.0229
     10 C           8.1282    0.4254    0.0000 C.3     1  UNL1       -0.0243
     11 C           4.6641   -0.5746    0.0000 C.ar    1  UNL1        0.1038
     12 C           5.5301   -1.0746    0.0000 C.2     1  UNL1        0.3433
     13 C           8.9942    0.9254    0.0000 C.ar    1  UNL1       -0.0470
     14 C           3.7702    0.9601    0.0000 C.ar    1  UNL1       -0.0159
     15 C           3.7702   -1.1093    0.0000 C.ar    1  UNL1        0.1345
     16 C           2.8641    0.4462    0.0000 C.ar    1  UNL1        0.1206
     17 C           2.8641   -0.5954    0.0000 C.ar    1  UNL1        0.0221
     18 C           9.8602    0.4254    0.0000 C.ar    1  UNL1       -0.0551
     19 C           8.9942    1.9254    0.0000 C.ar    1  UNL1       -0.0551
     20 C          10.7263    0.9254    0.0000 C.ar    1  UNL1       -0.0197
     21 C           9.8602    2.4254    0.0000 C.ar    1  UNL1       -0.0197
     22 C          10.7263    1.9254    0.0000 C.ar    1  UNL1        0.1201
     23 C          12.4583    1.9254    0.0000 C.3     1  UNL1        0.0788
     24 H           6.9331    0.1154    0.0000 H       1  UNL1        0.0737
     25 H           5.9286    1.4003    0.0000 H       1  UNL1        0.0349
     26 H           5.1316    1.4003    0.0000 H       1  UNL1        0.0349
     27 H           7.6607    1.4003    0.0000 H       1  UNL1        0.0304
     28 H           6.8636    1.4003    0.0000 H       1  UNL1        0.0304
     29 H           7.7297   -0.0496    0.0000 H       1  UNL1        0.0314
     30 H           8.5267   -0.0496    0.0000 H       1  UNL1        0.0314
     31 H           3.7773    1.5800    0.0000 H       1  UNL1        0.0657
     32 H           2.3284   -0.9075    0.0000 H       1  UNL1        0.0691
     33 H           9.8602   -0.1946    0.0000 H       1  UNL1        0.0621
     34 H           8.4573    2.2354    0.0000 H       1  UNL1        0.0621
     35 H          11.2632    0.6154    0.0000 H       1  UNL1        0.0654
     36 H           9.8602    3.0454    0.0000 H       1  UNL1        0.0654
     37 H           3.2484   -2.4254    0.0000 H       1  UNL1        0.2922
     38 H           2.0024    1.5695    0.0000 H       1  UNL1        0.2921
     39 H          12.1483    1.3885    0.0000 H       1  UNL1        0.0660
     40 H          12.9953    1.6154    0.0000 H       1  UNL1        0.0660
     41 H          12.7683    2.4623    0.0000 H       1  UNL1        0.0660
@<TRIPOS>BOND
     1     1     6    1
     2     1    12    1
     3     2    12    2
     4     3    15    1
     5     3    37    1
     6     4    16    1
     7     4    38    1
     8     5    22    1
     9     5    23    1
    10     6     7    1
    11     6     8    1
    12     6    24    1
    13     7     9    1
    14     7    25    1
    15     7    26    1
    16     8    10    1
    17     8    27    1
    18     8    28    1
    19     9    11   ar
    20     9    14   ar
    21    10    13    1
    22    10    29    1
    23    10    30    1
    24    11    12    1
    25    11    15   ar
    26    13    18   ar
    27    13    19   ar
    28    14    16   ar
    29    14    31    1
    30    15    17   ar
    31    16    17   ar
    32    17    32    1
    33    18    20   ar
    34    18    33    1
    35    19    21   ar
    36    19    34    1
    37    20    22   ar
    38    20    35    1
    39    21    22   ar
    40    21    36    1
    41    23    39    1
    42    23    40    1
    43    23    41    1
