@<TRIPOS>MOLECULE
IMPHY002000
 46 48 0 0 0
SMALL
GASTEIGER

@<TRIPOS>ATOM
      1 O           6.0290   -0.6117    0.0000 O.3     1  UNL1       -0.4897
      2 O           6.0174    2.4575    0.0000 O.2     1  UNL1       -0.2910
      3 O           4.2690    2.4229    0.0000 O.3     1  UNL1       -0.5058
      4 O           2.5369   -0.5771    0.0000 O.3     1  UNL1       -0.5062
      5 O           8.6709   -0.0496    0.0000 O.3     1  UNL1       -0.5064
      6 O          10.3914    2.9571    0.0000 O.3     1  UNL1       -0.5066
      7 C           6.9350    0.9437    0.0000 C.3     1  UNL1        0.0847
      8 C           6.9350   -0.0979    0.0000 C.3     1  UNL1        0.1036
      9 C           5.1350    0.9229    0.0000 C.ar    1  UNL1        0.1015
     10 C           6.0290    1.4576    0.0000 C.2     1  UNL1        0.1809
     11 C           5.1350   -0.0771    0.0000 C.ar    1  UNL1        0.1415
     12 C           7.7991    1.4471    0.0000 C.ar    1  UNL1        0.0081
     13 C           4.2690   -0.5771    0.0000 C.ar    1  UNL1        0.0403
     14 C           4.2690    1.4229    0.0000 C.ar    1  UNL1        0.1343
     15 C           4.2690   -1.5771    0.0000 C.3     1  UNL1       -0.0023
     16 C           3.4030   -0.0771    0.0000 C.ar    1  UNL1        0.1273
     17 C           8.6671    0.9504    0.0000 C.ar    1  UNL1        0.1243
     18 C           3.4030    0.9229    0.0000 C.ar    1  UNL1        0.0225
     19 C           7.7953    2.4471    0.0000 C.ar    1  UNL1       -0.0509
     20 C           3.4030   -2.0771    0.0000 C.2     1  UNL1       -0.0807
     21 C           9.5312    1.4538    0.0000 C.ar    1  UNL1        0.0216
     22 C           8.6594    2.9504    0.0000 C.ar    1  UNL1       -0.0197
     23 C           9.5273    2.4537    0.0000 C.ar    1  UNL1        0.1203
     24 C           3.4030   -3.0771    0.0000 C.2     1  UNL1       -0.0793
     25 C           2.5369   -3.5771    0.0000 C.3     1  UNL1       -0.0440
     26 C           4.2690   -3.5771    0.0000 C.3     1  UNL1       -0.0440
     27 H           7.4726    0.6348    0.0000 H       1  UNL1        0.0464
     28 H           7.1441   -0.6816    0.0000 H       1  UNL1        0.0707
     29 H           7.5459    0.0082    0.0000 H       1  UNL1        0.0707
     30 H           4.4810   -2.1597    0.0000 H       1  UNL1        0.0358
     31 H           4.8796   -1.4694    0.0000 H       1  UNL1        0.0358
     32 H           2.8660    1.2329    0.0000 H       1  UNL1        0.0691
     33 H           7.2571    2.7550    0.0000 H       1  UNL1        0.0623
     34 H           2.8660   -1.7671    0.0000 H       1  UNL1        0.0575
     35 H          10.0693    1.1458    0.0000 H       1  UNL1        0.0691
     36 H           8.6570    3.5704    0.0000 H       1  UNL1        0.0654
     37 H           3.7320    2.7329    0.0000 H       1  UNL1        0.2922
     38 H           2.0000   -0.2671    0.0000 H       1  UNL1        0.2921
     39 H           9.2090   -0.3575    0.0000 H       1  UNL1        0.2921
     40 H           2.2269   -3.0401    0.0000 H       1  UNL1        0.0274
     41 H           2.0000   -3.8871    0.0000 H       1  UNL1        0.0274
     42 H           2.8469   -4.1140    0.0000 H       1  UNL1        0.0274
     43 H           3.9590   -4.1140    0.0000 H       1  UNL1        0.0274
     44 H           4.8059   -3.8871    0.0000 H       1  UNL1        0.0274
     45 H           4.5790   -3.0401    0.0000 H       1  UNL1        0.0274
     46 H          10.3890    3.5771    0.0000 H       1  UNL1        0.2921
@<TRIPOS>BOND
     1     1     8    1
     2     1    11    1
     3     2    10    2
     4     3    14    1
     5     3    37    1
     6     4    16    1
     7     4    38    1
     8     5    17    1
     9     5    39    1
    10     6    23    1
    11     6    46    1
    12     7     8    1
    13     7    10    1
    14     7    12    1
    15     7    27    1
    16     8    28    1
    17     8    29    1
    18     9    10    1
    19     9    11   ar
    20     9    14   ar
    21    11    13   ar
    22    12    17   ar
    23    12    19   ar
    24    13    15    1
    25    13    16   ar
    26    14    18   ar
    27    15    20    1
    28    15    30    1
    29    15    31    1
    30    16    18   ar
    31    17    21   ar
    32    18    32    1
    33    19    22   ar
    34    19    33    1
    35    20    24    2
    36    20    34    1
    37    21    23   ar
    38    21    35    1
    39    22    23   ar
    40    22    36    1
    41    24    25    1
    42    24    26    1
    43    25    40    1
    44    25    41    1
    45    25    42    1
    46    26    43    1
    47    26    44    1
    48    26    45    1
