@<TRIPOS>MOLECULE
IMPHY005436
 33 35 0 0 0
SMALL
GASTEIGER

@<TRIPOS>ATOM
      1 O           6.0682   -0.0000    0.0000 O.2     1  UNL1       -0.4545
      2 O           8.6663   -2.5000    0.0000 O.3     1  UNL1       -0.4914
      3 O           6.0682    3.0000    0.0000 O.2     1  UNL1       -0.2870
      4 O           2.5381   -0.0241    0.0000 O.3     1  UNL1       -0.5066
      5 O          10.3984   -1.5000    0.0000 O.3     1  UNL1       -0.5033
      6 C           6.9343    0.5000    0.0000 C.ar    1  UNL1        0.1393
      7 C           5.2022    1.5000    0.0000 C.ar    1  UNL1        0.0642
      8 C           7.8003   -0.0000    0.0000 C.ar    1  UNL1        0.0211
      9 C           5.2022    0.5000    0.0000 C.ar    1  UNL1        0.1427
     10 C           6.9343    1.5000    0.0000 C.ar    1  UNL1        0.0287
     11 C           6.0682    2.0000    0.0000 C.ar    1  UNL1        0.1931
     12 C           7.8003   -1.0000    0.0000 C.ar    1  UNL1       -0.0057
     13 C           4.3083    2.0347    0.0000 C.ar    1  UNL1       -0.0439
     14 C           8.6663    0.5000    0.0000 C.ar    1  UNL1       -0.0474
     15 C           4.3083   -0.0347    0.0000 C.ar    1  UNL1        0.0229
     16 C           8.6663   -1.5000    0.0000 C.ar    1  UNL1        0.1619
     17 C           3.4022    0.4792    0.0000 C.ar    1  UNL1        0.1204
     18 C           3.4022    1.5208    0.0000 C.ar    1  UNL1       -0.0193
     19 C           9.5323   -1.0000    0.0000 C.ar    1  UNL1        0.1585
     20 C           9.5323   -0.0000    0.0000 C.ar    1  UNL1       -0.0159
     21 C           7.8003   -3.0000    0.0000 C.3     1  UNL1        0.0790
     22 H           7.4712    1.8100    0.0000 H       1  UNL1        0.0693
     23 H           7.2634   -1.3100    0.0000 H       1  UNL1        0.0662
     24 H           8.6663    1.1200    0.0000 H       1  UNL1        0.0626
     25 H           4.3154    2.6546    0.0000 H       1  UNL1        0.0627
     26 H           4.3154   -0.6546    0.0000 H       1  UNL1        0.0691
     27 H           2.8665    1.8329    0.0000 H       1  UNL1        0.0654
     28 H          10.0693    0.3100    0.0000 H       1  UNL1        0.0655
     29 H           2.0000    0.2838    0.0000 H       1  UNL1        0.2921
     30 H          10.9353   -1.1900    0.0000 H       1  UNL1        0.2923
     31 H           7.4903   -2.4631    0.0000 H       1  UNL1        0.0660
     32 H           7.2634   -3.3100    0.0000 H       1  UNL1        0.0660
     33 H           8.1103   -3.5369    0.0000 H       1  UNL1        0.0660
@<TRIPOS>BOND
     1     1     6   ar
     2     1     9   ar
     3     2    16    1
     4     2    21    1
     5     3    11    2
     6     4    17    1
     7     4    29    1
     8     5    19    1
     9     5    30    1
    10     6     8    1
    11     6    10   ar
    12     7     9   ar
    13     7    11   ar
    14     7    13   ar
    15     8    12   ar
    16     8    14   ar
    17     9    15   ar
    18    10    11   ar
    19    10    22    1
    20    12    16   ar
    21    12    23    1
    22    13    18   ar
    23    13    25    1
    24    14    20   ar
    25    14    24    1
    26    15    17   ar
    27    15    26    1
    28    16    19   ar
    29    17    18   ar
    30    18    27    1
    31    19    20   ar
    32    20    28    1
    33    21    31    1
    34    21    32    1
    35    21    33    1
