@<TRIPOS>MOLECULE
IMPHY013057
 44 47 0 0 0
SMALL
GASTEIGER

@<TRIPOS>ATOM
      1 O           5.9065    0.9605    0.0000 O.3     1  UNL1       -0.4830
      2 O           8.0505    3.0290    0.0000 O.3     1  UNL1       -0.4907
      3 O          10.6901    0.6848    0.0000 O.3     1  UNL1       -0.5064
      4 O           2.4170    1.8648    0.0000 O.3     1  UNL1       -0.5066
      5 C           6.4033    2.4938    0.0000 C.3     1  UNL1        0.0629
      6 C           6.7123    1.5427    0.0000 C.3     1  UNL1        0.1385
      7 C           5.4092    2.4912    0.0000 C.ar    1  UNL1        0.0047
      8 C           7.0724    3.2369    0.0000 C.3     1  UNL1        0.1002
      9 C           7.6904    1.3348    0.0000 C.ar    1  UNL1        0.0355
     10 C           5.1028    1.5455    0.0000 C.ar    1  UNL1        0.1285
     11 C           8.3596    2.0780    0.0000 C.ar    1  UNL1        0.1307
     12 C           7.9970    0.3393    0.0000 C.ar    1  UNL1       -0.0446
     13 C           4.7276    3.2707    0.0000 C.ar    1  UNL1       -0.0511
     14 C           9.0142    0.1149    0.0000 C.ar    1  UNL1       -0.0016
     15 C           4.0936    1.3138    0.0000 C.ar    1  UNL1        0.0219
     16 C           9.3816    1.8771    0.0000 C.ar    1  UNL1        0.0222
     17 C           9.7112    0.8890    0.0000 C.ar    1  UNL1        0.1238
     18 C           3.7133    3.0624    0.0000 C.ar    1  UNL1       -0.0197
     19 C           3.3942    2.0773    0.0000 C.ar    1  UNL1        0.1203
     20 C           9.3195   -0.8373    0.0000 C.3     1  UNL1       -0.0058
     21 C           8.6475   -1.5779    0.0000 C.2     1  UNL1       -0.0809
     22 C           8.9529   -2.5301    0.0000 C.2     1  UNL1       -0.0793
     23 C           8.2809   -3.2707    0.0000 C.3     1  UNL1       -0.0440
     24 C           9.9302   -2.7418    0.0000 C.3     1  UNL1       -0.0440
     25 H           6.0565    3.2698    0.0000 H       1  UNL1        0.0423
     26 H           6.8879    0.7111    0.0000 H       1  UNL1        0.0793
     27 H           7.3046    3.8118    0.0000 H       1  UNL1        0.0704
     28 H           6.5466    3.5655    0.0000 H       1  UNL1        0.0704
     29 H           7.5768   -0.1166    0.0000 H       1  UNL1        0.0627
     30 H           4.9255    3.8583    0.0000 H       1  UNL1        0.0623
     31 H           3.9094    0.7218    0.0000 H       1  UNL1        0.0691
     32 H           9.7912    2.3426    0.0000 H       1  UNL1        0.0691
     33 H           3.2998    3.5243    0.0000 H       1  UNL1        0.0654
     34 H           9.6993   -1.3274    0.0000 H       1  UNL1        0.0357
     35 H           9.8681   -0.5484    0.0000 H       1  UNL1        0.0357
     36 H           8.0416   -1.4467    0.0000 H       1  UNL1        0.0575
     37 H          11.1032    1.1472    0.0000 H       1  UNL1        0.2921
     38 H           2.0000    2.3236    0.0000 H       1  UNL1        0.2921
     39 H           7.8217   -2.8541    0.0000 H       1  UNL1        0.0274
     40 H           7.8642   -3.7298    0.0000 H       1  UNL1        0.0274
     41 H           8.7400   -3.6873    0.0000 H       1  UNL1        0.0274
     42 H           9.7990   -3.3478    0.0000 H       1  UNL1        0.0274
     43 H          10.5362   -2.8731    0.0000 H       1  UNL1        0.0274
     44 H          10.0615   -2.1359    0.0000 H       1  UNL1        0.0274
@<TRIPOS>BOND
     1     1     6    1
     2     1    10    1
     3     2     8    1
     4     2    11    1
     5     3    17    1
     6     3    37    1
     7     4    19    1
     8     4    38    1
     9     5     6    1
    10     5     7    1
    11     5     8    1
    12     5    25    1
    13     6     9    1
    14     6    26    1
    15     7    10   ar
    16     7    13   ar
    17     8    27    1
    18     8    28    1
    19     9    11   ar
    20     9    12   ar
    21    10    15   ar
    22    11    16   ar
    23    12    14   ar
    24    12    29    1
    25    13    18   ar
    26    13    30    1
    27    14    17   ar
    28    14    20    1
    29    15    19   ar
    30    15    31    1
    31    16    17   ar
    32    16    32    1
    33    18    19   ar
    34    18    33    1
    35    20    21    1
    36    20    34    1
    37    20    35    1
    38    21    22    2
    39    21    36    1
    40    22    23    1
    41    22    24    1
    42    23    39    1
    43    23    40    1
    44    23    41    1
    45    24    42    1
    46    24    43    1
    47    24    44    1
