@<TRIPOS>MOLECULE
IMPHY013088
 42 45 0 0 0
SMALL
GASTEIGER

@<TRIPOS>ATOM
      1 O           6.3981    0.0000    0.0000 O.2     1  UNL1       -0.4508
      2 O          10.8084    0.3047    0.0000 O.3     1  UNL1       -0.4524
      3 O          10.8084   -1.3047    0.0000 O.3     1  UNL1       -0.4489
      4 O           8.1301    2.0000    0.0000 O.3     1  UNL1       -0.4883
      5 O           8.9962   -2.5000    0.0000 O.3     1  UNL1       -0.4913
      6 O           2.8680   -0.0241    0.0000 O.3     1  UNL1       -0.4950
      7 O           6.3981    3.0000    0.0000 O.2     1  UNL1       -0.2831
      8 C           8.1301   -0.0000    0.0000 C.ar    1  UNL1        0.0282
      9 C           7.2641    0.5000    0.0000 C.ar    1  UNL1        0.1810
     10 C           9.8622   -0.0000    0.0000 C.ar    1  UNL1        0.1706
     11 C           9.8622   -1.0000    0.0000 C.ar    1  UNL1        0.2076
     12 C           8.9962    0.5000    0.0000 C.ar    1  UNL1       -0.0051
     13 C           5.5320    1.5000    0.0000 C.ar    1  UNL1        0.0679
     14 C           7.2641    1.5000    0.0000 C.ar    1  UNL1        0.2106
     15 C           8.1301   -1.0000    0.0000 C.ar    1  UNL1       -0.0053
     16 C           5.5320    0.5000    0.0000 C.ar    1  UNL1        0.1430
     17 C           8.9962   -1.5000    0.0000 C.ar    1  UNL1        0.1660
     18 C           6.3981    2.0000    0.0000 C.ar    1  UNL1        0.2345
     19 C          11.3920   -0.5000    0.0000 C.3     1  UNL1        0.2334
     20 C           4.6381   -0.0347    0.0000 C.ar    1  UNL1        0.0231
     21 C           4.6381    2.0347    0.0000 C.ar    1  UNL1       -0.0438
     22 C           3.7320    0.4792    0.0000 C.ar    1  UNL1        0.1236
     23 C           3.7320    1.5208    0.0000 C.ar    1  UNL1       -0.0190
     24 C           8.1301    3.0000    0.0000 C.3     1  UNL1        0.0791
     25 C           8.1301   -3.0000    0.0000 C.3     1  UNL1        0.0790
     26 C           2.0000    0.4725    0.0000 C.3     1  UNL1        0.0788
     27 H           8.9962    1.1200    0.0000 H       1  UNL1        0.0662
     28 H           7.5932   -1.3100    0.0000 H       1  UNL1        0.0662
     29 H          11.8529   -0.9147    0.0000 H       1  UNL1        0.1166
     30 H          11.8529   -0.0853    0.0000 H       1  UNL1        0.1166
     31 H           4.6453   -0.6546    0.0000 H       1  UNL1        0.0691
     32 H           4.6453    2.6546    0.0000 H       1  UNL1        0.0627
     33 H           3.1963    1.8329    0.0000 H       1  UNL1        0.0654
     34 H           8.7501    3.0000    0.0000 H       1  UNL1        0.0660
     35 H           8.1301    3.6200    0.0000 H       1  UNL1        0.0660
     36 H           7.5101    3.0000    0.0000 H       1  UNL1        0.0660
     37 H           7.8201   -2.4631    0.0000 H       1  UNL1        0.0660
     38 H           7.5932   -3.3100    0.0000 H       1  UNL1        0.0660
     39 H           8.4401   -3.5369    0.0000 H       1  UNL1        0.0660
     40 H           2.3079    1.0106    0.0000 H       1  UNL1        0.0660
     41 H           1.4619    0.7804    0.0000 H       1  UNL1        0.0660
     42 H           1.6921   -0.0656    0.0000 H       1  UNL1        0.0660
@<TRIPOS>BOND
     1     1     9   ar
     2     1    16   ar
     3     2    10    1
     4     2    19    1
     5     3    11    1
     6     3    19    1
     7     4    14    1
     8     4    24    1
     9     5    17    1
    10     5    25    1
    11     6    22    1
    12     6    26    1
    13     7    18    2
    14     8     9    1
    15     8    12   ar
    16     8    15   ar
    17     9    14   ar
    18    10    11   ar
    19    10    12   ar
    20    11    17   ar
    21    12    27    1
    22    13    16   ar
    23    13    18   ar
    24    13    21   ar
    25    14    18   ar
    26    15    17   ar
    27    15    28    1
    28    16    20   ar
    29    19    29    1
    30    19    30    1
    31    20    22   ar
    32    20    31    1
    33    21    23   ar
    34    21    32    1
    35    22    23   ar
    36    23    33    1
    37    24    34    1
    38    24    35    1
    39    24    36    1
    40    25    37    1
    41    25    38    1
    42    25    39    1
    43    26    40    1
    44    26    41    1
    45    26    42    1
