@<TRIPOS>MOLECULE
IMPHY011276
 108 113 0 0 0
SMALL
GASTEIGER

@<TRIPOS>ATOM
      1 O           6.8671   -2.8225    0.0000 O.3     1  UNL1       -0.3451
      2 O           5.9675    2.7433    0.0000 O.3     1  UNL1       -0.3915
      3 O           3.2532    3.2961    0.0000 O.3     1  UNL1       -0.3673
      4 O          10.5121   -1.7916    0.0000 O.3     1  UNL1       -0.3912
      5 O           5.1350   -2.8225    0.0000 O.3     1  UNL1       -0.3405
      6 O           3.2078    6.0070    0.0000 O.3     1  UNL1       -0.3866
      7 O           6.8671   -4.8225    0.0000 O.3     1  UNL1       -0.3841
      8 O           5.1350   -5.8225    0.0000 O.3     1  UNL1       -0.3864
      9 O           3.4030   -4.8225    0.0000 O.3     1  UNL1       -0.3865
     10 O           2.5369   -3.3225    0.0000 O.3     1  UNL1       -0.3924
     11 C           5.9790   -0.2567    0.0000 C.3     1  UNL1       -0.0206
     12 C           5.1111    0.2400    0.0000 C.3     1  UNL1       -0.0208
     13 C           6.8431    0.2467    0.0000 C.3     1  UNL1       -0.0269
     14 C           7.7551   -0.2567    0.0000 C.3     1  UNL1       -0.0228
     15 C           5.1072    1.2400    0.0000 C.3     1  UNL1       -0.0036
     16 C           7.7671   -1.2982    0.0000 C.3     1  UNL1       -0.0014
     17 C           4.1598    1.5411    0.0000 C.3     1  UNL1       -0.0064
     18 C           5.9670   -1.2982    0.0000 C.3     1  UNL1       -0.0200
     19 C           6.8393    1.2466    0.0000 C.3     1  UNL1       -0.0227
     20 C           4.1661   -0.0684    0.0000 C.3     1  UNL1       -0.0464
     21 C           5.9713    1.7433    0.0000 C.3     1  UNL1        0.0592
     22 C           6.8671   -1.8225    0.0000 C.3     1  UNL1        0.0662
     23 C           3.5794    0.7341    0.0000 C.3     1  UNL1       -0.0467
     24 C           8.7047   -1.8444    0.0000 C.3     1  UNL1       -0.0032
     25 C           8.6797    0.3110    0.0000 C.3     1  UNL1       -0.0446
     26 C           5.3392   -1.0252    0.0000 C.3     1  UNL1       -0.0587
     27 C           4.7727   -0.7010    0.0000 C.3     1  UNL1       -0.0587
     28 C           3.8455    2.4904    0.0000 C.3     1  UNL1        0.0705
     29 C           7.7435    0.7433    0.0000 C.3     1  UNL1       -0.0589
     30 C           9.6422   -1.2982    0.0000 C.3     1  UNL1        0.0607
     31 C           9.6296   -0.2133    0.0000 C.3     1  UNL1       -0.0258
     32 C           4.7948    2.8047    0.0000 C.3     1  UNL1       -0.0213
     33 C           9.2047   -2.7104    0.0000 C.3     1  UNL1       -0.0571
     34 C           8.2047   -2.7104    0.0000 C.3     1  UNL1       -0.0571
     35 C           3.0398    1.8981    0.0000 C.3     1  UNL1       -0.0355
     36 C           4.7893    3.8047    0.0000 C.3     1  UNL1       -0.0213
     37 C           3.8365    4.1084    0.0000 C.3     1  UNL1        0.0876
     38 C           6.0010   -3.3225    0.0000 C.3     1  UNL1        0.1882
     39 C           3.5222    5.0577    0.0000 C.3     1  UNL1        0.0865
     40 C           6.0010   -4.3225    0.0000 C.3     1  UNL1        0.1341
     41 C           5.1350   -4.8225    0.0000 C.3     1  UNL1        0.1141
     42 C           2.5728    4.7434    0.0000 C.3     1  UNL1       -0.0339
     43 C           4.4715    5.3720    0.0000 C.3     1  UNL1       -0.0339
     44 C           4.2690   -3.3225    0.0000 C.3     1  UNL1        0.1130
     45 C           4.2690   -4.3225    0.0000 C.3     1  UNL1        0.1119
     46 C           3.4030   -2.8225    0.0000 C.3     1  UNL1        0.0730
     47 H           7.5743    0.6801    0.0000 H       1  UNL1        0.0312
     48 H           5.0140    2.0848    0.0000 H       1  UNL1        0.0335
     49 H           7.7671   -2.1482    0.0000 H       1  UNL1        0.0337
     50 H           3.3196    1.6697    0.0000 H       1  UNL1        0.0332
     51 H           5.3574   -1.1851    0.0000 H       1  UNL1        0.0296
     52 H           5.7512   -1.8795    0.0000 H       1  UNL1        0.0296
     53 H           7.4503    1.1413    0.0000 H       1  UNL1        0.0293
     54 H           7.0491    1.8301    0.0000 H       1  UNL1        0.0293
     55 H           3.6299   -0.3797    0.0000 H       1  UNL1        0.0271
     56 H           4.4193   -0.6343    0.0000 H       1  UNL1        0.0271
     57 H           6.5071    2.0554    0.0000 H       1  UNL1        0.0596
     58 H           7.4046   -2.1315    0.0000 H       1  UNL1        0.0600
     59 H           3.1169    1.1470    0.0000 H       1  UNL1        0.0269
     60 H           3.1201    0.3176    0.0000 H       1  UNL1        0.0269
     61 H           9.0678    0.7945    0.0000 H       1  UNL1        0.0271
     62 H           8.2697    0.7760    0.0000 H       1  UNL1        0.0271
     63 H           4.8627   -0.6285    0.0000 H       1  UNL1        0.0235
     64 H           4.9425   -1.5016    0.0000 H       1  UNL1        0.0235
     65 H           5.8156   -1.4219    0.0000 H       1  UNL1        0.0235
     66 H           4.1893   -0.4912    0.0000 H       1  UNL1        0.0235
     67 H           4.5629   -1.2845    0.0000 H       1  UNL1        0.0235
     68 H           5.3561   -0.9108    0.0000 H       1  UNL1        0.0235
     69 H           8.3635    0.7504    0.0000 H       1  UNL1        0.0235
     70 H           7.7364    1.3632    0.0000 H       1  UNL1        0.0235
     71 H           7.1236    0.7361    0.0000 H       1  UNL1        0.0235
     72 H          10.1761   -0.9831    0.0000 H       1  UNL1        0.0599
     73 H          10.2417   -0.3123    0.0000 H       1  UNL1        0.0290
     74 H           9.8319    0.3728    0.0000 H       1  UNL1        0.0290
     75 H           4.9271    2.1990    0.0000 H       1  UNL1        0.0294
     76 H           5.4111    2.8730    0.0000 H       1  UNL1        0.0294
     77 H           8.6677   -3.0204    0.0000 H       1  UNL1        0.0236
     78 H           9.5147   -3.2473    0.0000 H       1  UNL1        0.0236
     79 H           9.7416   -2.4004    0.0000 H       1  UNL1        0.0236
     80 H           7.6677   -2.4004    0.0000 H       1  UNL1        0.0236
     81 H           7.8947   -3.2473    0.0000 H       1  UNL1        0.0236
     82 H           8.7416   -3.0204    0.0000 H       1  UNL1        0.0236
     83 H           6.5032    3.0554    0.0000 H       1  UNL1        0.2098
     84 H           2.6726    2.3976    0.0000 H       1  UNL1        0.0257
     85 H           2.5403    1.5308    0.0000 H       1  UNL1        0.0257
     86 H           3.4070    1.3985    0.0000 H       1  UNL1        0.0257
     87 H           5.4062    3.7433    0.0000 H       1  UNL1        0.0292
     88 H           4.9148    4.4118    0.0000 H       1  UNL1        0.0292
     89 H           2.9962    4.2367    0.0000 H       1  UNL1        0.0625
     90 H           6.0010   -2.7025    0.0000 H       1  UNL1        0.0937
     91 H          11.0466   -1.4774    0.0000 H       1  UNL1        0.2098
     92 H           6.0010   -4.9425    0.0000 H       1  UNL1        0.0671
     93 H           4.5981   -5.1325    0.0000 H       1  UNL1        0.0648
     94 H           2.3780    5.3320    0.0000 H       1  UNL1        0.0258
     95 H           1.9843    4.5485    0.0000 H       1  UNL1        0.0258
     96 H           2.7677    4.1548    0.0000 H       1  UNL1        0.0258
     97 H           4.6664    4.7834    0.0000 H       1  UNL1        0.0258
     98 H           5.0601    5.5669    0.0000 H       1  UNL1        0.0258
     99 H           4.2766    5.9606    0.0000 H       1  UNL1        0.0258
    100 H           4.2690   -2.7025    0.0000 H       1  UNL1        0.0647
    101 H           3.7320   -4.0125    0.0000 H       1  UNL1        0.0647
    102 H           2.6007    6.1325    0.0000 H       1  UNL1        0.2102
    103 H           6.8671   -5.4425    0.0000 H       1  UNL1        0.2101
    104 H           3.8015   -2.3476    0.0000 H       1  UNL1        0.0584
    105 H           3.0044   -2.3476    0.0000 H       1  UNL1        0.0584
    106 H           4.5981   -6.1325    0.0000 H       1  UNL1        0.2100
    107 H           3.4030   -5.4425    0.0000 H       1  UNL1        0.2100
    108 H           2.0000   -3.0125    0.0000 H       1  UNL1        0.2095
@<TRIPOS>BOND
     1    22     1    1
     2    38     1    1
     3    21     2    1
     4     2    83    1
     5     3    28    1
     6     3    37    1
     7    30     4    1
     8     4    91    1
     9     5    38    1
    10     5    44    1
    11     6    39    1
    12     6   102    1
    13    40     7    1
    14     7   103    1
    15    41     8    1
    16     8   106    1
    17    45     9    1
    18     9   107    1
    19    10    46    1
    20    10   108    1
    21    11    12    1
    22    11    13    1
    23    11    18    1
    24    11    26    1
    25    12    15    1
    26    12    20    1
    27    12    27    1
    28    13    14    1
    29    13    19    1
    30    13    47    1
    31    14    16    1
    32    14    25    1
    33    14    29    1
    34    15    17    1
    35    15    21    1
    36    15    48    1
    37    16    22    1
    38    16    24    1
    39    16    49    1
    40    17    23    1
    41    17    28    1
    42    17    50    1
    43    18    22    1
    44    18    51    1
    45    18    52    1
    46    19    21    1
    47    19    53    1
    48    19    54    1
    49    20    23    1
    50    20    55    1
    51    20    56    1
    52    21    57    1
    53    22    58    1
    54    23    59    1
    55    23    60    1
    56    24    30    1
    57    24    33    1
    58    24    34    1
    59    25    31    1
    60    25    61    1
    61    25    62    1
    62    26    63    1
    63    26    64    1
    64    26    65    1
    65    27    66    1
    66    27    67    1
    67    27    68    1
    68    28    32    1
    69    28    35    1
    70    29    69    1
    71    29    70    1
    72    29    71    1
    73    30    31    1
    74    30    72    1
    75    31    73    1
    76    31    74    1
    77    32    36    1
    78    32    75    1
    79    32    76    1
    80    33    77    1
    81    33    78    1
    82    33    79    1
    83    34    80    1
    84    34    81    1
    85    34    82    1
    86    35    84    1
    87    35    85    1
    88    35    86    1
    89    36    37    1
    90    36    87    1
    91    36    88    1
    92    37    39    1
    93    37    89    1
    94    38    40    1
    95    38    90    1
    96    39    42    1
    97    39    43    1
    98    40    41    1
    99    40    92    1
   100    41    45    1
   101    41    93    1
   102    42    94    1
   103    42    95    1
   104    42    96    1
   105    43    97    1
   106    43    98    1
   107    43    99    1
   108    44    45    1
   109    44    46    1
   110    44   100    1
   111    45   101    1
   112    46   104    1
   113    46   105    1
