@<TRIPOS>MOLECULE
IMPHY008449
 38 41 0 0 0
SMALL
GASTEIGER

@<TRIPOS>ATOM
      1 O           4.2864   -2.7044    0.0000 O.3     1  UNL1       -0.4814
      2 O           6.0427    0.4498    0.0000 O.2     1  UNL1       -0.4500
      3 O           2.5405    0.4529    0.0000 O.3     1  UNL1       -0.5058
      4 O           3.4446    1.9498    0.0000 O.2     1  UNL1       -0.2863
      5 O           7.8129    1.4466    0.0000 O.3     1  UNL1       -0.5009
      6 O           7.8287    3.4949    0.0000 O.3     1  UNL1       -0.5032
      7 C           5.2260   -3.2469    0.0000 C.3     1  UNL1        0.1235
      8 C           5.1928   -1.0917    0.0000 C.ar    1  UNL1        0.0597
      9 C           4.2947   -1.6195    0.0000 C.ar    1  UNL1        0.1359
     10 C           5.1767   -0.0502    0.0000 C.ar    1  UNL1        0.1536
     11 C           6.1614   -2.6972    0.0000 C.2     1  UNL1       -0.0408
     12 C           4.3107    0.4498    0.0000 C.ar    1  UNL1        0.1067
     13 C           6.1447   -1.6124    0.0000 C.2     1  UNL1       -0.0478
     14 C           5.7293   -4.1110    0.0000 C.3     1  UNL1       -0.0215
     15 C           4.7293   -4.1149    0.0000 C.3     1  UNL1       -0.0215
     16 C           3.3926   -1.0987    0.0000 C.ar    1  UNL1        0.0231
     17 C           3.4007   -0.0571    0.0000 C.ar    1  UNL1        0.1347
     18 C           4.3107    1.4498    0.0000 C.ar    1  UNL1        0.2039
     19 C           5.1767    1.9498    0.0000 C.ar    1  UNL1        0.0686
     20 C           6.0427    1.4498    0.0000 C.ar    1  UNL1        0.1841
     21 C           6.9527    1.9566    0.0000 C.ar    1  UNL1        0.2021
     22 C           5.1606    2.9913    0.0000 C.ar    1  UNL1       -0.0437
     23 C           6.9608    2.9982    0.0000 C.ar    1  UNL1        0.1620
     24 C           6.0587    3.5190    0.0000 C.ar    1  UNL1       -0.0156
     25 H           6.7019   -3.0010    0.0000 H       1  UNL1        0.0611
     26 H           6.6756   -1.2921    0.0000 H       1  UNL1        0.0624
     27 H           5.1936   -4.4231    0.0000 H       1  UNL1        0.0271
     28 H           6.0414   -4.6468    0.0000 H       1  UNL1        0.0271
     29 H           4.1912   -3.8070    0.0000 H       1  UNL1        0.0271
     30 H           4.4214   -4.6530    0.0000 H       1  UNL1        0.0271
     31 H           5.2675   -4.4228    0.0000 H       1  UNL1        0.0271
     32 H           6.2651   -3.7990    0.0000 H       1  UNL1        0.0271
     33 H           2.8545   -1.4066    0.0000 H       1  UNL1        0.0691
     34 H           4.6202    3.2951    0.0000 H       1  UNL1        0.0627
     35 H           6.0563    4.1390    0.0000 H       1  UNL1        0.0655
     36 H           2.0000    0.1491    0.0000 H       1  UNL1        0.2922
     37 H           8.3534    1.7504    0.0000 H       1  UNL1        0.2924
     38 H           7.8311    4.1149    0.0000 H       1  UNL1        0.2923
@<TRIPOS>BOND
     1     1     7    1
     2     1     9    1
     3     2    10   ar
     4     2    20   ar
     5     3    17    1
     6     3    36    1
     7     4    18    2
     8     5    21    1
     9     5    37    1
    10     6    23    1
    11     6    38    1
    12     7    11    1
    13     7    14    1
    14     7    15    1
    15     8     9   ar
    16     8    10   ar
    17     8    13    1
    18     9    16   ar
    19    10    12   ar
    20    11    13    2
    21    11    25    1
    22    12    17   ar
    23    12    18   ar
    24    13    26    1
    25    14    27    1
    26    14    28    1
    27    14    32    1
    28    15    29    1
    29    15    30    1
    30    15    31    1
    31    16    17   ar
    32    16    33    1
    33    18    19   ar
    34    19    20   ar
    35    19    22   ar
    36    20    21   ar
    37    21    23   ar
    38    22    24   ar
    39    22    34    1
    40    23    24   ar
    41    24    35    1
