@<TRIPOS>MOLECULE
IMPHY016406
 20 20 0 0 0
SMALL
GASTEIGER

@<TRIPOS>ATOM
      1 O           4.5981    1.7500    0.0000 O.2     1  UNL1       -0.2957
      2 C           4.5981   -1.2500    0.0000 C.ar    1  UNL1       -0.0495
      3 C           2.8660   -1.2500    0.0000 C.ar    1  UNL1       -0.0495
      4 C           3.7320   -1.7500    0.0000 C.ar    1  UNL1       -0.0559
      5 C           3.7320    0.2500    0.0000 C.ar    1  UNL1        0.0147
      6 C           4.5981   -0.2500    0.0000 C.ar    1  UNL1       -0.0486
      7 C           2.8660   -0.2500    0.0000 C.ar    1  UNL1       -0.0486
      8 C           5.4641   -1.7500    0.0000 C.3     1  UNL1       -0.0397
      9 C           2.0000   -1.7500    0.0000 C.3     1  UNL1       -0.0397
     10 C           3.7320    1.2500    0.0000 C.2     1  UNL1        0.1502
     11 H           3.7320   -2.3700    0.0000 H       1  UNL1        0.0623
     12 H           5.1350    0.0600    0.0000 H       1  UNL1        0.0627
     13 H           2.3291    0.0600    0.0000 H       1  UNL1        0.0627
     14 H           5.1541   -2.2869    0.0000 H       1  UNL1        0.0278
     15 H           6.0010   -2.0600    0.0000 H       1  UNL1        0.0278
     16 H           5.7741   -1.2131    0.0000 H       1  UNL1        0.0278
     17 H           1.6900   -1.2131    0.0000 H       1  UNL1        0.0278
     18 H           1.4631   -2.0600    0.0000 H       1  UNL1        0.0278
     19 H           2.3100   -2.2869    0.0000 H       1  UNL1        0.0278
     20 H           3.1951    1.5600    0.0000 H       1  UNL1        0.1081
@<TRIPOS>BOND
     1     1    10    2
     2     2     4   ar
     3     2     6   ar
     4     2     8    1
     5     3     4   ar
     6     3     7   ar
     7     3     9    1
     8     4    11    1
     9     5     6   ar
    10     5     7   ar
    11     5    10    1
    12     6    12    1
    13     7    13    1
    14     8    14    1
    15     8    15    1
    16     8    16    1
    17     9    17    1
    18     9    18    1
    19     9    19    1
    20    10    20    1
