@<TRIPOS>MOLECULE
IMPHY005359
 73 78 0 0 0
SMALL
GASTEIGER

@<TRIPOS>ATOM
      1 O           5.9670   -0.1945    0.0000 O.2     1  UNL1       -0.4701
      2 O           6.8671   -1.7188    0.0000 O.3     1  UNL1       -0.3095
      3 O           8.3079   -1.7993    0.0000 O.3     1  UNL1       -0.3900
      4 O           5.1350   -1.7188    0.0000 O.3     1  UNL1       -0.3404
      5 O           6.0599    2.8700    0.0000 O.3     1  UNL1       -0.4646
      6 O           6.8671   -3.7188    0.0000 O.3     1  UNL1       -0.3841
      7 O           5.1350   -4.7188    0.0000 O.3     1  UNL1       -0.3864
      8 O           7.7915    2.8300    0.0000 O.2     1  UNL1       -0.2452
      9 O           3.4030   -3.7188    0.0000 O.3     1  UNL1       -0.3865
     10 O           2.5369   -2.2188    0.0000 O.3     1  UNL1       -0.3924
     11 N           9.9634    0.2801    0.0000 N.3     1  UNL1       -0.2912
     12 N           9.8844    3.0565    0.0000 N.ar    1  UNL1       -0.3564
     13 C           7.7671   -0.1945    0.0000 C.3     1  UNL1        0.0559
     14 C           7.7787    0.8054    0.0000 C.3     1  UNL1        0.0065
     15 C           9.5400    1.1861    0.0000 C.3     1  UNL1        0.0515
     16 C           8.5677    1.4198    0.0000 C.3     1  UNL1       -0.0241
     17 C           8.5417   -0.8270    0.0000 C.3     1  UNL1        0.0770
     18 C           9.5191   -0.6158    0.0000 C.3     1  UNL1        0.0261
     19 C           6.8671   -0.7188    0.0000 C.3     1  UNL1        0.2092
     20 C          10.1234    2.0490    0.0000 C.ar    1  UNL1        0.0376
     21 C          10.9996    0.1743    0.0000 C.3     1  UNL1        0.0037
     22 C           6.8910    1.3504    0.0000 C.2     1  UNL1        0.0744
     23 C          11.1618    1.9671    0.0000 C.ar    1  UNL1       -0.0164
     24 C          11.6029    1.0235    0.0000 C.3     1  UNL1       -0.0125
     25 C          11.5557    2.9247    0.0000 C.ar    1  UNL1        0.0032
     26 C           5.9790    0.8471    0.0000 C.2     1  UNL1        0.0981
     27 C           6.0010   -2.2188    0.0000 C.3     1  UNL1        0.1918
     28 C          10.7678    3.5966    0.0000 C.ar    1  UNL1        0.0470
     29 C           6.0010   -3.2188    0.0000 C.3     1  UNL1        0.1342
     30 C           6.9141    2.3501    0.0000 C.2     1  UNL1        0.3381
     31 C           5.1350   -3.7188    0.0000 C.3     1  UNL1        0.1141
     32 C           4.2690   -3.2188    0.0000 C.3     1  UNL1        0.1119
     33 C           4.2690   -2.2188    0.0000 C.3     1  UNL1        0.1130
     34 C          12.5776    3.2698    0.0000 C.ar    1  UNL1       -0.0523
     35 C          10.9472    4.6602    0.0000 C.ar    1  UNL1       -0.0378
     36 C           3.4030   -1.7188    0.0000 C.3     1  UNL1        0.0730
     37 C          12.7815    4.3289    0.0000 C.ar    1  UNL1       -0.0611
     38 C          11.9608    5.0288    0.0000 C.ar    1  UNL1       -0.0598
     39 C           6.0830    3.8698    0.0000 C.3     1  UNL1        0.0820
     40 H           7.7003   -1.0419    0.0000 H       1  UNL1        0.0393
     41 H           7.7315    1.6541    0.0000 H       1  UNL1        0.0358
     42 H           9.2325    1.9785    0.0000 H       1  UNL1        0.0527
     43 H           8.8431    1.9753    0.0000 H       1  UNL1        0.0290
     44 H           8.0874    1.8120    0.0000 H       1  UNL1        0.0290
     45 H           8.9750   -1.2704    0.0000 H       1  UNL1        0.0611
     46 H           9.5120   -1.2357    0.0000 H       1  UNL1        0.0452
     47 H          10.1220   -0.7607    0.0000 H       1  UNL1        0.0452
     48 H           6.3295   -1.0278    0.0000 H       1  UNL1        0.1060
     49 H          10.8320   -0.4226    0.0000 H       1  UNL1        0.0430
     50 H          11.5591   -0.0930    0.0000 H       1  UNL1        0.0430
     51 H          12.0394    0.5832    0.0000 H       1  UNL1        0.0326
     52 H          12.1114    1.3782    0.0000 H       1  UNL1        0.0326
     53 H           9.3121    3.2948    0.0000 H       1  UNL1        0.1656
     54 H           5.4470    1.1653    0.0000 H       1  UNL1        0.1029
     55 H           6.0010   -1.5988    0.0000 H       1  UNL1        0.0939
     56 H           8.7575   -2.2262    0.0000 H       1  UNL1        0.2098
     57 H           6.0010   -3.8388    0.0000 H       1  UNL1        0.0671
     58 H           4.5981   -4.0288    0.0000 H       1  UNL1        0.0648
     59 H           3.7320   -2.9088    0.0000 H       1  UNL1        0.0647
     60 H           4.2690   -1.5988    0.0000 H       1  UNL1        0.0647
     61 H          13.0447    2.8621    0.0000 H       1  UNL1        0.0624
     62 H          10.4708    5.0570    0.0000 H       1  UNL1        0.0638
     63 H           3.8015   -1.2438    0.0000 H       1  UNL1        0.0584
     64 H           3.0044   -1.2438    0.0000 H       1  UNL1        0.0584
     65 H          13.3666    4.5341    0.0000 H       1  UNL1        0.0618
     66 H          12.0710    5.6389    0.0000 H       1  UNL1        0.0618
     67 H           6.8671   -4.3388    0.0000 H       1  UNL1        0.2101
     68 H           4.5981   -5.0288    0.0000 H       1  UNL1        0.2100
     69 H           3.4030   -4.3388    0.0000 H       1  UNL1        0.2100
     70 H           6.7028    3.8554    0.0000 H       1  UNL1        0.0661
     71 H           6.0973    4.4896    0.0000 H       1  UNL1        0.0661
     72 H           5.4632    3.8841    0.0000 H       1  UNL1        0.0661
     73 H           2.0000   -1.9088    0.0000 H       1  UNL1        0.2095
@<TRIPOS>BOND
     1     1    19    1
     2     1    26    1
     3    19     2    1
     4    27     2    1
     5    17     3    1
     6     3    56    1
     7     4    27    1
     8     4    33    1
     9     5    30    1
    10     5    39    1
    11    29     6    1
    12     6    67    1
    13    31     7    1
    14     7    68    1
    15     8    30    2
    16    32     9    1
    17     9    69    1
    18    10    36    1
    19    10    73    1
    20    11    15    1
    21    11    18    1
    22    11    21    1
    23    12    20   ar
    24    12    28   ar
    25    12    53    1
    26    13    14    1
    27    13    17    1
    28    13    19    1
    29    13    40    1
    30    14    16    1
    31    14    22    1
    32    14    41    1
    33    15    16    1
    34    15    20    1
    35    15    42    1
    36    16    43    1
    37    16    44    1
    38    17    18    1
    39    17    45    1
    40    18    46    1
    41    18    47    1
    42    19    48    1
    43    20    23   ar
    44    21    24    1
    45    21    49    1
    46    21    50    1
    47    22    26    2
    48    22    30    1
    49    23    24    1
    50    23    25   ar
    51    24    51    1
    52    24    52    1
    53    25    28   ar
    54    25    34   ar
    55    26    54    1
    56    27    29    1
    57    27    55    1
    58    28    35   ar
    59    29    31    1
    60    29    57    1
    61    31    32    1
    62    31    58    1
    63    32    33    1
    64    32    59    1
    65    33    36    1
    66    33    60    1
    67    34    37   ar
    68    34    61    1
    69    35    38   ar
    70    35    62    1
    71    36    63    1
    72    36    64    1
    73    37    38   ar
    74    37    65    1
    75    38    66    1
    76    39    70    1
    77    39    71    1
    78    39    72    1
