@<TRIPOS>MOLECULE
IMPHY012709
 28 28 0 0 0
SMALL
GASTEIGER

@<TRIPOS>ATOM
      1 O           4.5981    1.7500    0.0000 O.3     1  UNL1       -0.4588
      2 O           2.8660    1.7500    0.0000 O.2     1  UNL1       -0.2456
      3 C           4.5981    2.7500    0.0000 C.3     1  UNL1        0.0978
      4 C           5.4641    3.2500    0.0000 C.3     1  UNL1       -0.0280
      5 C           3.7320    3.2500    0.0000 C.3     1  UNL1       -0.0280
      6 C           2.8660   -1.2500    0.0000 C.ar    1  UNL1       -0.0248
      7 C           3.7320    1.2500    0.0000 C.2     1  UNL1        0.3322
      8 C           2.8660   -0.2500    0.0000 C.2     1  UNL1       -0.0478
      9 C           3.7320    0.2500    0.0000 C.2     1  UNL1        0.0231
     10 C           2.0000   -1.7500    0.0000 C.ar    1  UNL1       -0.0546
     11 C           3.7320   -1.7500    0.0000 C.ar    1  UNL1       -0.0546
     12 C           2.0000   -2.7500    0.0000 C.ar    1  UNL1       -0.0612
     13 C           3.7320   -2.7500    0.0000 C.ar    1  UNL1       -0.0612
     14 C           2.8660   -3.2500    0.0000 C.ar    1  UNL1       -0.0617
     15 H           5.1350    2.4400    0.0000 H       1  UNL1        0.0728
     16 H           5.7741    2.7131    0.0000 H       1  UNL1        0.0265
     17 H           6.0010    3.5600    0.0000 H       1  UNL1        0.0265
     18 H           5.1541    3.7869    0.0000 H       1  UNL1        0.0265
     19 H           4.0420    3.7869    0.0000 H       1  UNL1        0.0265
     20 H           3.1951    3.5600    0.0000 H       1  UNL1        0.0265
     21 H           3.4220    2.7131    0.0000 H       1  UNL1        0.0265
     22 H           2.3291    0.0600    0.0000 H       1  UNL1        0.0626
     23 H           4.2690   -0.0600    0.0000 H       1  UNL1        0.0689
     24 H           1.4631   -1.4400    0.0000 H       1  UNL1        0.0623
     25 H           4.2690   -1.4400    0.0000 H       1  UNL1        0.0623
     26 H           1.4631   -3.0600    0.0000 H       1  UNL1        0.0618
     27 H           4.2690   -3.0600    0.0000 H       1  UNL1        0.0618
     28 H           2.8660   -3.8700    0.0000 H       1  UNL1        0.0618
@<TRIPOS>BOND
     1     1     3    1
     2     1     7    1
     3     2     7    2
     4     3     4    1
     5     3     5    1
     6     3    15    1
     7     4    16    1
     8     4    17    1
     9     4    18    1
    10     5    19    1
    11     5    20    1
    12     5    21    1
    13     6     8    1
    14     6    10   ar
    15     6    11   ar
    16     7     9    1
    17     8     9    2
    18     8    22    1
    19     9    23    1
    20    10    12   ar
    21    10    24    1
    22    11    13   ar
    23    11    25    1
    24    12    14   ar
    25    12    26    1
    26    13    14   ar
    27    13    27    1
    28    14    28    1
