@<TRIPOS>MOLECULE
IMPHY007967
 21 20 0 0 0
SMALL
GASTEIGER

@<TRIPOS>ATOM
      1 O           3.7320    0.7500    0.0000 O.3     1  UNL1       -0.4648
      2 O           7.1962    0.7500    0.0000 O.3     1  UNL1       -0.3915
      3 O           4.5981   -0.7500    0.0000 O.2     1  UNL1       -0.2508
      4 C           6.3301    0.2500    0.0000 C.3     1  UNL1        0.0625
      5 C           5.4641    0.7500    0.0000 C.3     1  UNL1        0.0706
      6 C           6.3301   -0.7500    0.0000 C.3     1  UNL1       -0.0384
      7 C           4.5981    0.2500    0.0000 C.2     1  UNL1        0.3095
      8 C           2.8660    0.2500    0.0000 C.3     1  UNL1        0.0896
      9 C           2.0000    0.7500    0.0000 C.3     1  UNL1       -0.0306
     10 H           7.0662   -0.1750    0.0000 H       1  UNL1        0.0596
     11 H           5.8626    1.2250    0.0000 H       1  UNL1        0.0403
     12 H           5.0656    1.2250    0.0000 H       1  UNL1        0.0403
     13 H           5.7101   -0.7500    0.0000 H       1  UNL1        0.0255
     14 H           6.3301   -1.3700    0.0000 H       1  UNL1        0.0255
     15 H           6.9501   -0.7500    0.0000 H       1  UNL1        0.0255
     16 H           2.4675   -0.2249    0.0000 H       1  UNL1        0.0694
     17 H           3.2646   -0.2249    0.0000 H       1  UNL1        0.0694
     18 H           7.7331    0.4400    0.0000 H       1  UNL1        0.2098
     19 H           2.3100    1.2869    0.0000 H       1  UNL1        0.0262
     20 H           1.4631    1.0600    0.0000 H       1  UNL1        0.0262
     21 H           1.6900    0.2131    0.0000 H       1  UNL1        0.0262
@<TRIPOS>BOND
     1     1     7    1
     2     1     8    1
     3     2     4    1
     4     2    18    1
     5     3     7    2
     6     4     5    1
     7     4     6    1
     8     4    10    1
     9     5     7    1
    10     5    11    1
    11     5    12    1
    12     6    13    1
    13     6    14    1
    14     6    15    1
    15     8     9    1
    16     8    16    1
    17     8    17    1
    18     9    19    1
    19     9    20    1
    20     9    21    1
