@<TRIPOS>MOLECULE
IMPHY000294
 69 71 0 0 0
SMALL
GASTEIGER

@<TRIPOS>ATOM
      1 O           7.9380   -1.7872    0.0000 O.3     1  UNL1       -0.3632
      2 O           9.7337    0.0000    0.0000 O.3     1  UNL1       -0.4543
      3 O           5.3949   -0.5208    0.0000 O.2     1  UNL1       -0.4600
      4 O           6.3125   -2.0346    0.0000 O.3     1  UNL1       -0.4240
      5 O           5.4523    2.5446    0.0000 O.3     1  UNL1       -0.4572
      6 O           9.7337    1.7320    0.0000 O.2     1  UNL1       -0.2511
      7 O           4.5806   -2.0546    0.0000 O.2     1  UNL1       -0.2507
      8 O           6.3356    4.0345    0.0000 O.2     1  UNL1       -0.2466
      9 O           3.7319    3.5645    0.0000 O.3     1  UNL1       -0.4498
     10 O           2.8833    5.0744    0.0000 O.2     1  UNL1       -0.2511
     11 C           8.1459   -0.8090    0.0000 C.3     1  UNL1        0.1465
     12 C           7.1949   -0.5000    0.0000 C.3     1  UNL1        0.0935
     13 C           8.8891   -1.4782    0.0000 C.3     1  UNL1        0.0823
     14 C           8.7337    0.0000    0.0000 C.3     1  UNL1        0.1535
     15 C           7.1949    0.5000    0.0000 C.2     1  UNL1       -0.0254
     16 C           6.3009   -1.0347    0.0000 C.3     1  UNL1        0.2549
     17 C           8.1459    0.8090    0.0000 C.2     1  UNL1       -0.0368
     18 C           6.3009    1.0347    0.0000 C.2     1  UNL1        0.0277
     19 C           5.3949    0.5208    0.0000 C.2     1  UNL1        0.0956
     20 C           6.3125    2.0346    0.0000 C.3     1  UNL1        0.1207
     21 C          10.2337    0.8660    0.0000 C.2     1  UNL1        0.3046
     22 C           5.4523   -2.5446    0.0000 C.2     1  UNL1        0.3102
     23 C           5.4639   -3.5445    0.0000 C.3     1  UNL1        0.0476
     24 C          11.2337    0.8660    0.0000 C.3     1  UNL1        0.0333
     25 C           4.6037   -4.0545    0.0000 C.3     1  UNL1       -0.0341
     26 C           5.4639    3.5445    0.0000 C.2     1  UNL1        0.3489
     27 C           4.6152   -5.0544    0.0000 C.3     1  UNL1       -0.0528
     28 C           4.6037    4.0545    0.0000 C.3     1  UNL1        0.2011
     29 C           3.7319   -3.5645    0.0000 C.3     1  UNL1       -0.0619
     30 C           4.6152    5.0544    0.0000 C.3     1  UNL1        0.0011
     31 C           3.7551   -5.5644    0.0000 C.3     1  UNL1       -0.0650
     32 C           3.7551    5.5644    0.0000 C.3     1  UNL1       -0.0588
     33 C           5.4870    5.5444    0.0000 C.3     1  UNL1       -0.0588
     34 C           2.8718    4.0745    0.0000 C.2     1  UNL1        0.3047
     35 C           2.0000    3.5846    0.0000 C.3     1  UNL1        0.0333
     36 H           7.2902   -1.3446    0.0000 H       1  UNL1        0.0452
     37 H           9.1802   -2.0256    0.0000 H       1  UNL1        0.0590
     38 H           9.3776   -1.0964    0.0000 H       1  UNL1        0.0590
     39 H           9.0152    0.5524    0.0000 H       1  UNL1        0.0810
     40 H           5.7670   -1.3498    0.0000 H       1  UNL1        0.1213
     41 H           8.3375    1.3987    0.0000 H       1  UNL1        0.0612
     42 H           4.8591    0.8329    0.0000 H       1  UNL1        0.1029
     43 H           6.9218    1.9199    0.0000 H       1  UNL1        0.0750
     44 H           6.5313    2.6147    0.0000 H       1  UNL1        0.0750
     45 H           5.6826   -4.1246    0.0000 H       1  UNL1        0.0380
     46 H           6.0732   -3.4298    0.0000 H       1  UNL1        0.0380
     47 H          11.2337    0.2460    0.0000 H       1  UNL1        0.0342
     48 H          11.8537    0.8660    0.0000 H       1  UNL1        0.0342
     49 H          11.2337    1.4860    0.0000 H       1  UNL1        0.0342
     50 H           3.8725   -4.4880    0.0000 H       1  UNL1        0.0303
     51 H           4.8340   -5.6345    0.0000 H       1  UNL1        0.0265
     52 H           5.2245   -4.9397    0.0000 H       1  UNL1        0.0265
     53 H           3.8725    4.4880    0.0000 H       1  UNL1        0.0855
     54 H           4.0357   -3.0240    0.0000 H       1  UNL1        0.0233
     55 H           3.1914   -3.2608    0.0000 H       1  UNL1        0.0233
     56 H           3.4282   -4.1050    0.0000 H       1  UNL1        0.0233
     57 H           5.1486    4.7382    0.0000 H       1  UNL1        0.0337
     58 H           3.4389   -5.0311    0.0000 H       1  UNL1        0.0230
     59 H           3.2218   -5.8806    0.0000 H       1  UNL1        0.0230
     60 H           4.0712   -6.0977    0.0000 H       1  UNL1        0.0230
     61 H           4.0712    6.0977    0.0000 H       1  UNL1        0.0234
     62 H           3.2218    5.8806    0.0000 H       1  UNL1        0.0234
     63 H           3.4389    5.0311    0.0000 H       1  UNL1        0.0234
     64 H           5.7908    5.0039    0.0000 H       1  UNL1        0.0234
     65 H           6.0275    5.8482    0.0000 H       1  UNL1        0.0234
     66 H           5.1832    6.0849    0.0000 H       1  UNL1        0.0234
     67 H           1.6962    4.1250    0.0000 H       1  UNL1        0.0342
     68 H           1.4595    3.2808    0.0000 H       1  UNL1        0.0342
     69 H           2.3038    3.0441    0.0000 H       1  UNL1        0.0342
@<TRIPOS>BOND
     1    11     1    1
     2     1    13    1
     3    14     2    1
     4     2    21    1
     5     3    16    1
     6     3    19    1
     7    16     4    1
     8     4    22    1
     9     5    20    1
    10     5    26    1
    11     6    21    2
    12     7    22    2
    13     8    26    2
    14     9    28    1
    15     9    34    1
    16    10    34    2
    17    11    12    1
    18    11    13    1
    19    11    14    1
    20    12    15    1
    21    12    16    1
    22    12    36    1
    23    13    37    1
    24    13    38    1
    25    14    17    1
    26    14    39    1
    27    15    17    2
    28    15    18    1
    29    16    40    1
    30    17    41    1
    31    18    19    2
    32    18    20    1
    33    19    42    1
    34    20    43    1
    35    20    44    1
    36    21    24    1
    37    22    23    1
    38    23    25    1
    39    23    45    1
    40    23    46    1
    41    24    47    1
    42    24    48    1
    43    24    49    1
    44    25    27    1
    45    25    29    1
    46    25    50    1
    47    26    28    1
    48    27    31    1
    49    27    51    1
    50    27    52    1
    51    28    30    1
    52    28    53    1
    53    29    54    1
    54    29    55    1
    55    29    56    1
    56    30    32    1
    57    30    33    1
    58    30    57    1
    59    31    58    1
    60    31    59    1
    61    31    60    1
    62    32    61    1
    63    32    62    1
    64    32    63    1
    65    33    64    1
    66    33    65    1
    67    33    66    1
    68    34    35    1
    69    35    67    1
    70    35    68    1
    71    35    69    1
