@<TRIPOS>MOLECULE
IMPHY016384
 19 19 0 0 0
SMALL
GASTEIGER

@<TRIPOS>ATOM
      1 O           4.5981    1.4400    0.0000 O.3     1  UNL1       -0.3904
      2 C           3.7320   -0.0600    0.0000 C.ar    1  UNL1       -0.0219
      3 C           2.8660   -1.5600    0.0000 C.ar    1  UNL1       -0.0501
      4 C           2.8660   -0.5600    0.0000 C.ar    1  UNL1       -0.0535
      5 C           4.5981   -0.5600    0.0000 C.ar    1  UNL1       -0.0564
      6 C           3.7320   -2.0600    0.0000 C.ar    1  UNL1       -0.0588
      7 C           3.7320    0.9400    0.0000 C.3     1  UNL1        0.0692
      8 C           4.5981   -1.5600    0.0000 C.ar    1  UNL1       -0.0612
      9 C           2.0000   -2.0600    0.0000 C.3     1  UNL1       -0.0397
     10 H           2.3291   -0.2500    0.0000 H       1  UNL1        0.0624
     11 H           5.1350   -0.2500    0.0000 H       1  UNL1        0.0621
     12 H           3.5200    1.5226    0.0000 H       1  UNL1        0.0607
     13 H           3.1215    0.8323    0.0000 H       1  UNL1        0.0607
     14 H           3.7320   -2.6800    0.0000 H       1  UNL1        0.0620
     15 H           5.1350   -1.8700    0.0000 H       1  UNL1        0.0618
     16 H           1.6900   -1.5231    0.0000 H       1  UNL1        0.0278
     17 H           1.4631   -2.3700    0.0000 H       1  UNL1        0.0278
     18 H           2.3100   -2.5969    0.0000 H       1  UNL1        0.0278
     19 H           4.5981    2.0600    0.0000 H       1  UNL1        0.2098
@<TRIPOS>BOND
     1     1     7    1
     2     1    19    1
     3     2     4   ar
     4     2     5   ar
     5     2     7    1
     6     3     4   ar
     7     3     6   ar
     8     3     9    1
     9     4    10    1
    10     5     8   ar
    11     5    11    1
    12     6     8   ar
    13     6    14    1
    14     7    12    1
    15     7    13    1
    16     8    15    1
    17     9    16    1
    18     9    17    1
    19     9    18    1
