@<TRIPOS>MOLECULE
IMPHY014166
 47 50 0 0 0
SMALL
GASTEIGER

@<TRIPOS>ATOM
      1 O           3.9061   -1.6074    0.0000 O.3     1  UNL1       -0.4814
      2 O           7.4260   -1.6074    0.0000 O.2     1  UNL1       -0.4618
      3 O           5.6660    1.4273    0.0000 O.3     1  UNL1       -0.4936
      4 O           7.4144    1.4619    0.0000 O.2     1  UNL1       -0.2863
      5 O          11.7884    1.9615    0.0000 O.3     1  UNL1       -0.4951
      6 C           3.0000   -1.0935    0.0000 C.3     1  UNL1        0.1235
      7 C           4.8000   -0.0727    0.0000 C.ar    1  UNL1        0.0591
      8 C           4.8000   -1.0727    0.0000 C.ar    1  UNL1        0.1359
      9 C           3.0000   -0.0519    0.0000 C.2     1  UNL1       -0.0408
     10 C           5.6660    0.4273    0.0000 C.ar    1  UNL1        0.1450
     11 C           6.5320   -0.0727    0.0000 C.ar    1  UNL1        0.1068
     12 C           3.9061    0.4620    0.0000 C.2     1  UNL1       -0.0478
     13 C           2.0000   -1.0974    0.0000 C.3     1  UNL1       -0.0215
     14 C           2.5033   -1.9615    0.0000 C.3     1  UNL1       -0.0215
     15 C           6.5320   -1.0727    0.0000 C.ar    1  UNL1        0.1455
     16 C           5.6660   -1.5727    0.0000 C.ar    1  UNL1        0.0239
     17 C           7.4260    0.4620    0.0000 C.ar    1  UNL1        0.2037
     18 C           8.3321   -0.0519    0.0000 C.ar    1  UNL1        0.0644
     19 C           8.3321   -1.0935    0.0000 C.ar    1  UNL1        0.1038
     20 C           9.1962    0.4515    0.0000 C.ar    1  UNL1       -0.0110
     21 C           9.1923    1.4514    0.0000 C.ar    1  UNL1       -0.0504
     22 C          10.0641   -0.0452    0.0000 C.ar    1  UNL1       -0.0504
     23 C           4.8000    1.9273    0.0000 C.3     1  UNL1        0.0788
     24 C          10.0564    1.9548    0.0000 C.ar    1  UNL1       -0.0194
     25 C          10.9282    0.4581    0.0000 C.ar    1  UNL1       -0.0194
     26 C          10.9243    1.4581    0.0000 C.ar    1  UNL1        0.1201
     27 C          12.6564    1.4648    0.0000 C.3     1  UNL1        0.0788
     28 H           2.4643    0.2602    0.0000 H       1  UNL1        0.0611
     29 H           3.9132    1.0819    0.0000 H       1  UNL1        0.0624
     30 H           1.9976   -0.4774    0.0000 H       1  UNL1        0.0271
     31 H           1.3800   -1.0998    0.0000 H       1  UNL1        0.0271
     32 H           2.0024   -1.7174    0.0000 H       1  UNL1        0.0271
     33 H           1.9652   -1.6535    0.0000 H       1  UNL1        0.0271
     34 H           2.1954   -2.4996    0.0000 H       1  UNL1        0.0271
     35 H           3.0415   -2.2694    0.0000 H       1  UNL1        0.0271
     36 H           5.6660   -2.1927    0.0000 H       1  UNL1        0.0691
     37 H           8.8678   -1.4056    0.0000 H       1  UNL1        0.1037
     38 H           8.6542    1.7594    0.0000 H       1  UNL1        0.0625
     39 H          10.0665   -0.6652    0.0000 H       1  UNL1        0.0625
     40 H           5.1100    2.4642    0.0000 H       1  UNL1        0.0660
     41 H           4.2631    2.2373    0.0000 H       1  UNL1        0.0660
     42 H           4.4900    1.3904    0.0000 H       1  UNL1        0.0660
     43 H          10.0540    2.5748    0.0000 H       1  UNL1        0.0654
     44 H          11.4663    0.1502    0.0000 H       1  UNL1        0.0654
     45 H          12.3484    0.9267    0.0000 H       1  UNL1        0.0660
     46 H          13.1945    1.1569    0.0000 H       1  UNL1        0.0660
     47 H          12.9643    2.0029    0.0000 H       1  UNL1        0.0660
@<TRIPOS>BOND
     1     1     6    1
     2     1     8    1
     3     2    15   ar
     4     2    19   ar
     5     3    10    1
     6     3    23    1
     7     4    17    2
     8     5    26    1
     9     5    27    1
    10     6     9    1
    11     6    13    1
    12     6    14    1
    13     7     8   ar
    14     7    10   ar
    15     7    12    1
    16     8    16   ar
    17     9    12    2
    18     9    28    1
    19    10    11   ar
    20    11    15   ar
    21    11    17   ar
    22    12    29    1
    23    13    30    1
    24    13    31    1
    25    13    32    1
    26    14    33    1
    27    14    34    1
    28    14    35    1
    29    15    16   ar
    30    16    36    1
    31    17    18   ar
    32    18    19   ar
    33    18    20    1
    34    19    37    1
    35    20    21   ar
    36    20    22   ar
    37    21    24   ar
    38    21    38    1
    39    22    25   ar
    40    22    39    1
    41    23    40    1
    42    23    41    1
    43    23    42    1
    44    24    26   ar
    45    24    43    1
    46    25    26   ar
    47    25    44    1
    48    27    45    1
    49    27    46    1
    50    27    47    1
