@<TRIPOS>MOLECULE
IMPHY017012
 30 31 0 0 0
SMALL
GASTEIGER

@<TRIPOS>ATOM
      1 C           3.7320   -0.7500    0.0000 C.3     1  UNL1       -0.0068
      2 C           2.8660   -1.2500    0.0000 C.3     1  UNL1       -0.0433
      3 C           4.6260   -1.2847    0.0000 C.3     1  UNL1       -0.0402
      4 C           3.7320    0.2500    0.0000 C.2     1  UNL1       -0.0428
      5 C           2.0000   -0.7500    0.0000 C.3     1  UNL1       -0.0486
      6 C           2.0000    0.2500    0.0000 C.3     1  UNL1       -0.0314
      7 C           2.8660    0.7500    0.0000 C.2     1  UNL1       -0.0689
      8 C           3.7320   -1.7500    0.0000 C.3     1  UNL1       -0.0555
      9 C           5.5321   -0.7708    0.0000 C.3     1  UNL1       -0.0337
     10 C           4.6260    0.7847    0.0000 C.2     1  UNL1       -0.0620
     11 C           5.5321    0.2708    0.0000 C.2     1  UNL1       -0.0837
     12 C           2.8660    1.7500    0.0000 C.3     1  UNL1       -0.0432
     13 H           2.4675   -1.7250    0.0000 H       1  UNL1        0.0274
     14 H           3.2646   -1.7250    0.0000 H       1  UNL1        0.0274
     15 H           4.2214   -1.7544    0.0000 H       1  UNL1        0.0277
     16 H           5.0196   -1.7637    0.0000 H       1  UNL1        0.0277
     17 H           1.3894   -0.6423    0.0000 H       1  UNL1        0.0269
     18 H           1.7880   -1.3326    0.0000 H       1  UNL1        0.0269
     19 H           1.7880    0.8326    0.0000 H       1  UNL1        0.0310
     20 H           1.3894    0.1423    0.0000 H       1  UNL1        0.0310
     21 H           3.1120   -1.7500    0.0000 H       1  UNL1        0.0238
     22 H           3.7320   -2.3700    0.0000 H       1  UNL1        0.0238
     23 H           4.3520   -1.7500    0.0000 H       1  UNL1        0.0238
     24 H           5.7411   -1.3545    0.0000 H       1  UNL1        0.0308
     25 H           6.1429   -0.6647    0.0000 H       1  UNL1        0.0308
     26 H           4.6188    1.4046    0.0000 H       1  UNL1        0.0617
     27 H           6.0678    0.5829    0.0000 H       1  UNL1        0.0572
     28 H           3.4860    1.7500    0.0000 H       1  UNL1        0.0275
     29 H           2.8660    2.3700    0.0000 H       1  UNL1        0.0275
     30 H           2.2460    1.7500    0.0000 H       1  UNL1        0.0275
@<TRIPOS>BOND
     1     1     2    1
     2     1     3    1
     3     1     4    1
     4     1     8    1
     5     2     5    1
     6     2    13    1
     7     2    14    1
     8     3     9    1
     9     3    15    1
    10     3    16    1
    11     4     7    2
    12     4    10    1
    13     5     6    1
    14     5    17    1
    15     5    18    1
    16     6     7    1
    17     6    19    1
    18     6    20    1
    19     7    12    1
    20     8    21    1
    21     8    22    1
    22     8    23    1
    23     9    11    1
    24     9    24    1
    25     9    25    1
    26    10    11    2
    27    10    26    1
    28    11    27    1
    29    12    28    1
    30    12    29    1
    31    12    30    1
