@<TRIPOS>MOLECULE
IMPHY007639
 73 76 0 0 0
SMALL
GASTEIGER

@<TRIPOS>ATOM
      1 O           6.0010    1.1718    0.0000 O.2     1  UNL1       -0.4702
      2 O           6.8671   -0.3282    0.0000 O.3     1  UNL1       -0.3096
      3 O           8.9900    3.4271    0.0000 O.3     1  UNL1       -0.3886
      4 O          10.2629    1.6718    0.0000 O.3     1  UNL1       -0.3888
      5 O           9.9685   -0.2896    0.0000 O.3     1  UNL1       -0.4612
      6 O           5.1350   -0.3282    0.0000 O.3     1  UNL1       -0.3404
      7 O           6.0010    4.1718    0.0000 O.3     1  UNL1       -0.4646
      8 O           6.8671   -2.3282    0.0000 O.3     1  UNL1       -0.3841
      9 O           7.7331    4.1718    0.0000 O.2     1  UNL1       -0.2452
     10 O           5.1350   -3.3282    0.0000 O.3     1  UNL1       -0.3864
     11 O           3.4030   -2.3282    0.0000 O.3     1  UNL1       -0.3865
     12 O           2.5369   -0.8282    0.0000 O.3     1  UNL1       -0.3924
     13 O           9.6113   -1.9845    0.0000 O.2     1  UNL1       -0.2456
     14 O          14.1466   -4.7104    0.0000 O.3     1  UNL1       -0.5033
     15 O          15.4823   -3.2218    0.0000 O.3     1  UNL1       -0.5033
     16 C           7.7331    1.1718    0.0000 C.3     1  UNL1        0.0396
     17 C           7.7331    2.1718    0.0000 C.3     1  UNL1        0.0312
     18 C           8.6793    0.8671    0.0000 C.3     1  UNL1        0.0309
     19 C           8.6793    2.4766    0.0000 C.3     1  UNL1        0.0890
     20 C           9.2629    1.6718    0.0000 C.3     1  UNL1        0.0880
     21 C           6.8671    0.6718    0.0000 C.3     1  UNL1        0.2074
     22 C           6.8671    2.6718    0.0000 C.2     1  UNL1        0.0768
     23 C           8.9900   -0.0834    0.0000 C.3     1  UNL1        0.0985
     24 C           6.0010    2.1718    0.0000 C.2     1  UNL1        0.0982
     25 C           6.0010   -0.8282    0.0000 C.3     1  UNL1        0.1918
     26 C           6.8671    3.6718    0.0000 C.2     1  UNL1        0.3382
     27 C           6.0010   -1.8282    0.0000 C.3     1  UNL1        0.1342
     28 C           5.1350   -2.3282    0.0000 C.3     1  UNL1        0.1141
     29 C           4.2690   -1.8282    0.0000 C.3     1  UNL1        0.1119
     30 C           4.2690   -0.8282    0.0000 C.3     1  UNL1        0.1130
     31 C          10.2791   -1.2402    0.0000 C.2     1  UNL1        0.3320
     32 C           3.4030   -0.3282    0.0000 C.3     1  UNL1        0.0730
     33 C           6.0010    5.1718    0.0000 C.3     1  UNL1        0.0820
     34 C          11.2576   -1.4464    0.0000 C.2     1  UNL1        0.0231
     35 C          11.5683   -2.3969    0.0000 C.2     1  UNL1       -0.0477
     36 C          12.5468   -2.6031    0.0000 C.ar    1  UNL1       -0.0211
     37 C          12.8575   -3.5536    0.0000 C.ar    1  UNL1       -0.0094
     38 C          13.2147   -1.8588    0.0000 C.ar    1  UNL1       -0.0509
     39 C          13.8360   -3.7598    0.0000 C.ar    1  UNL1        0.1588
     40 C          14.1932   -2.0650    0.0000 C.ar    1  UNL1       -0.0160
     41 C          14.5038   -3.0156    0.0000 C.ar    1  UNL1        0.1582
     42 H           7.8230    0.3266    0.0000 H       1  UNL1        0.0373
     43 H           7.8230    3.0171    0.0000 H       1  UNL1        0.0383
     44 H           8.2418    0.4278    0.0000 H       1  UNL1        0.0364
     45 H           8.2418    2.9159    0.0000 H       1  UNL1        0.0625
     46 H           9.5446    1.1195    0.0000 H       1  UNL1        0.0623
     47 H           7.4040    0.3618    0.0000 H       1  UNL1        0.1059
     48 H           8.3762   -0.1708    0.0000 H       1  UNL1        0.0701
     49 H           8.9694   -0.7031    0.0000 H       1  UNL1        0.0701
     50 H           5.4641    2.4818    0.0000 H       1  UNL1        0.1029
     51 H           9.5966    3.5550    0.0000 H       1  UNL1        0.2099
     52 H          10.5729    2.2088    0.0000 H       1  UNL1        0.2099
     53 H           6.0010   -0.2082    0.0000 H       1  UNL1        0.0939
     54 H           6.5380   -1.5182    0.0000 H       1  UNL1        0.0671
     55 H           4.5981   -2.6382    0.0000 H       1  UNL1        0.0648
     56 H           3.7320   -1.5182    0.0000 H       1  UNL1        0.0647
     57 H           4.2690   -0.2082    0.0000 H       1  UNL1        0.0647
     58 H           3.8015    0.1468    0.0000 H       1  UNL1        0.0584
     59 H           3.0044    0.1468    0.0000 H       1  UNL1        0.0584
     60 H           6.8671   -2.9482    0.0000 H       1  UNL1        0.2101
     61 H           4.5981   -3.6382    0.0000 H       1  UNL1        0.2100
     62 H           3.4030   -2.9482    0.0000 H       1  UNL1        0.2100
     63 H           6.6210    5.1718    0.0000 H       1  UNL1        0.0661
     64 H           6.0010    5.7918    0.0000 H       1  UNL1        0.0661
     65 H           5.3810    5.1718    0.0000 H       1  UNL1        0.0661
     66 H          11.6717   -0.9849    0.0000 H       1  UNL1        0.0689
     67 H           2.0000   -0.5182    0.0000 H       1  UNL1        0.2095
     68 H          11.1542   -2.8584    0.0000 H       1  UNL1        0.0626
     69 H          12.4434   -4.0151    0.0000 H       1  UNL1        0.0661
     70 H          13.0220   -1.2695    0.0000 H       1  UNL1        0.0625
     71 H          14.6072   -1.6036    0.0000 H       1  UNL1        0.0655
     72 H          13.7326   -5.1718    0.0000 H       1  UNL1        0.2923
     73 H          15.8964   -2.7603    0.0000 H       1  UNL1        0.2923
@<TRIPOS>BOND
     1     1    21    1
     2     1    24    1
     3    21     2    1
     4    25     2    1
     5    19     3    1
     6     3    51    1
     7    20     4    1
     8     4    52    1
     9     5    23    1
    10     5    31    1
    11     6    25    1
    12     6    30    1
    13     7    26    1
    14     7    33    1
    15    27     8    1
    16     8    60    1
    17     9    26    2
    18    28    10    1
    19    10    61    1
    20    29    11    1
    21    11    62    1
    22    12    32    1
    23    12    67    1
    24    13    31    2
    25    14    39    1
    26    14    72    1
    27    15    41    1
    28    15    73    1
    29    16    17    1
    30    16    18    1
    31    16    21    1
    32    16    42    1
    33    17    19    1
    34    17    22    1
    35    17    43    1
    36    18    20    1
    37    18    23    1
    38    18    44    1
    39    19    20    1
    40    19    45    1
    41    20    46    1
    42    21    47    1
    43    22    24    2
    44    22    26    1
    45    23    48    1
    46    23    49    1
    47    24    50    1
    48    25    27    1
    49    25    53    1
    50    27    28    1
    51    27    54    1
    52    28    29    1
    53    28    55    1
    54    29    30    1
    55    29    56    1
    56    30    32    1
    57    30    57    1
    58    31    34    1
    59    32    58    1
    60    32    59    1
    61    33    63    1
    62    33    64    1
    63    33    65    1
    64    34    35    2
    65    34    66    1
    66    35    36    1
    67    35    68    1
    68    36    37   ar
    69    36    38   ar
    70    37    39   ar
    71    37    69    1
    72    38    40   ar
    73    38    70    1
    74    39    41   ar
    75    40    41   ar
    76    40    71    1
