@<TRIPOS>MOLECULE
IMPHY013235
 159 167 0 0 0
SMALL
GASTEIGER

@<TRIPOS>ATOM
      1 O          10.4601    6.1363    0.0000 O.3     1  UNL1       -0.3449
      2 O           7.5844   -0.9094    0.0000 O.3     1  UNL1       -0.3906
      3 O           8.5991   -3.1223    0.0000 O.3     1  UNL1       -0.4306
      4 O           7.6143   -2.2959    0.0000 O.2     1  UNL1       -0.2500
      5 O          12.1920    6.1163    0.0000 O.3     1  UNL1       -0.3315
      6 O           6.8671   -3.1223    0.0000 O.3     1  UNL1       -0.3360
      7 O          10.4832    8.1362    0.0000 O.3     1  UNL1       -0.3841
      8 O          12.2267    9.1161    0.0000 O.3     1  UNL1       -0.3864
      9 O           8.5991   -5.1222    0.0000 O.3     1  UNL1       -0.4523
     10 O          13.9471    8.0961    0.0000 O.3     1  UNL1       -0.3860
     11 O           6.8671   -6.1222    0.0000 O.3     1  UNL1       -0.3389
     12 O           5.1350   -5.1222    0.0000 O.3     1  UNL1       -0.3868
     13 O          14.7957    6.5862    0.0000 O.3     1  UNL1       -0.4788
     14 O          13.9124    5.0963    0.0000 O.2     1  UNL1       -0.2480
     15 O           5.1350   -6.1222    0.0000 O.3     1  UNL1       -0.3405
     16 O           9.4651   -3.6222    0.0000 O.2     1  UNL1       -0.2508
     17 O           6.8671   -8.1222    0.0000 O.3     1  UNL1       -0.3841
     18 O           5.1350   -9.1222    0.0000 O.3     1  UNL1       -0.3864
     19 O           3.4030   -8.1222    0.0000 O.3     1  UNL1       -0.3865
     20 O           2.5369   -6.6222    0.0000 O.3     1  UNL1       -0.3924
     21 O          13.7953   -8.1222    0.0000 O.3     1  UNL1       -0.5068
     22 C           9.5048    1.4468    0.0000 C.3     1  UNL1       -0.0193
     23 C          10.3746    1.9401    0.0000 C.3     1  UNL1       -0.0257
     24 C          10.3987    2.9815    0.0000 C.3     1  UNL1       -0.0250
     25 C           9.4970    0.4468    0.0000 C.3     1  UNL1       -0.0028
     26 C           9.5048    3.5161    0.0000 C.3     1  UNL1       -0.0278
     27 C           8.5987    1.9606    0.0000 C.3     1  UNL1       -0.0463
     28 C           8.5987    3.0023    0.0000 C.3     1  UNL1       -0.0486
     29 C           9.5048    4.6011    0.0000 C.3     1  UNL1       -0.0052
     30 C          10.3592   -0.0598    0.0000 C.2     1  UNL1       -0.0627
     31 C          10.3672   -1.1014    0.0000 C.3     1  UNL1       -0.0007
     32 C          11.2368    1.4334    0.0000 C.3     1  UNL1       -0.0306
     33 C          11.3546    3.4947    0.0000 C.3     1  UNL1       -0.0447
     34 C           8.5832   -0.0530    0.0000 C.3     1  UNL1       -0.0162
     35 C           9.4651   -1.6222    0.0000 C.3     1  UNL1        0.1000
     36 C           8.5671   -1.0945    0.0000 C.3     1  UNL1        0.0723
     37 C           8.5186    1.2808    0.0000 C.3     1  UNL1       -0.0585
     38 C          10.4485    5.1364    0.0000 C.3     1  UNL1        0.0672
     39 C          11.2290    0.4335    0.0000 C.2     1  UNL1       -0.0836
     40 C          11.2569    2.4682    0.0000 C.3     1  UNL1       -0.0590
     41 C          11.3797    4.5794    0.0000 C.3     1  UNL1       -0.0255
     42 C           8.5136    0.6281    0.0000 C.3     1  UNL1       -0.0552
     43 C          11.3151   -1.6294    0.0000 C.3     1  UNL1       -0.0402
     44 C           9.4484   -2.7071    0.0000 C.3     1  UNL1       -0.0338
     45 C          11.3235   -2.7143    0.0000 C.3     1  UNL1       -0.0343
     46 C           9.0081    5.4691    0.0000 C.3     1  UNL1       -0.0572
     47 C           8.5048    4.6050    0.0000 C.3     1  UNL1       -0.0572
     48 C          10.3838   -3.2568    0.0000 C.3     1  UNL1       -0.0467
     49 C           8.5991   -2.1223    0.0000 C.2     1  UNL1        0.3187
     50 C          12.3235   -2.7105    0.0000 C.3     1  UNL1       -0.0598
     51 C          11.8268   -3.5784    0.0000 C.3     1  UNL1       -0.0598
     52 C          11.3319    6.6262    0.0000 C.3     1  UNL1        0.1888
     53 C          11.3434    7.6262    0.0000 C.3     1  UNL1        0.1341
     54 C           7.7331   -3.6222    0.0000 C.3     1  UNL1        0.2447
     55 C          12.2152    8.1161    0.0000 C.3     1  UNL1        0.1145
     56 C          13.0638    6.6062    0.0000 C.3     1  UNL1        0.1859
     57 C           7.7331   -4.6222    0.0000 C.3     1  UNL1        0.1933
     58 C          13.0753    7.6062    0.0000 C.3     1  UNL1        0.1201
     59 C           6.8671   -5.1222    0.0000 C.3     1  UNL1        0.1324
     60 C           6.0010   -3.6222    0.0000 C.3     1  UNL1        0.0803
     61 C           6.0010   -4.6222    0.0000 C.3     1  UNL1        0.1084
     62 C          13.9240    6.0962    0.0000 C.2     1  UNL1        0.3367
     63 C           9.4651   -4.6222    0.0000 C.2     1  UNL1        0.3079
     64 C           6.0010   -6.6222    0.0000 C.3     1  UNL1        0.1885
     65 C           6.0010   -7.6222    0.0000 C.3     1  UNL1        0.1341
     66 C          10.3312   -5.1222    0.0000 C.3     1  UNL1        0.0489
     67 C           5.1350   -8.1222    0.0000 C.3     1  UNL1        0.1141
     68 C           4.2690   -6.6222    0.0000 C.3     1  UNL1        0.1130
     69 C           4.2690   -7.6222    0.0000 C.3     1  UNL1        0.1119
     70 C          10.3312   -6.1222    0.0000 C.3     1  UNL1       -0.0176
     71 C           3.4030   -6.1222    0.0000 C.3     1  UNL1        0.0730
     72 C          11.1972   -6.6222    0.0000 C.ar    1  UNL1       -0.0466
     73 C          12.0632   -6.1222    0.0000 C.ar    1  UNL1       -0.0551
     74 C          11.1972   -7.6222    0.0000 C.ar    1  UNL1       -0.0551
     75 C          12.9292   -6.6222    0.0000 C.ar    1  UNL1       -0.0199
     76 C          12.0632   -8.1222    0.0000 C.ar    1  UNL1       -0.0199
     77 C          12.9292   -7.6222    0.0000 C.ar    1  UNL1        0.1169
     78 H          10.9163    2.2418    0.0000 H       1  UNL1        0.0315
     79 H           8.9690    3.8282    0.0000 H       1  UNL1        0.0312
     80 H           7.9878    2.0667    0.0000 H       1  UNL1        0.0271
     81 H           8.3896    1.3769    0.0000 H       1  UNL1        0.0271
     82 H           8.3896    3.5860    0.0000 H       1  UNL1        0.0268
     83 H           7.9878    2.8962    0.0000 H       1  UNL1        0.0268
     84 H          10.9005   -0.7852    0.0000 H       1  UNL1        0.0357
     85 H          11.8465    1.3211    0.0000 H       1  UNL1        0.0310
     86 H          11.4533    2.0144    0.0000 H       1  UNL1        0.0310
     87 H          11.5501    2.9064    0.0000 H       1  UNL1        0.0271
     88 H          11.9678    3.5867    0.0000 H       1  UNL1        0.0271
     89 H           8.3831    0.5339    0.0000 H       1  UNL1        0.0299
     90 H           7.9707   -0.1496    0.0000 H       1  UNL1        0.0299
     91 H           8.3494   -1.6750    0.0000 H       1  UNL1        0.0605
     92 H           8.4157    1.8922    0.0000 H       1  UNL1        0.0235
     93 H           7.9072    1.1779    0.0000 H       1  UNL1        0.0235
     94 H           8.6216    0.6694    0.0000 H       1  UNL1        0.0235
     95 H          10.9896    5.4391    0.0000 H       1  UNL1        0.0602
     96 H          11.7636    0.1193    0.0000 H       1  UNL1        0.0572
     97 H          10.9387    1.9361    0.0000 H       1  UNL1        0.0235
     98 H          11.7890    2.1499    0.0000 H       1  UNL1        0.0235
     99 H          11.5751    3.0003    0.0000 H       1  UNL1        0.0235
    100 H          11.9879    4.4592    0.0000 H       1  UNL1        0.0290
    101 H          11.6022    5.1581    0.0000 H       1  UNL1        0.0290
    102 H           8.6260    1.2378    0.0000 H       1  UNL1        0.0238
    103 H           7.9039    0.7404    0.0000 H       1  UNL1        0.0238
    104 H           8.4012    0.0183    0.0000 H       1  UNL1        0.0238
    105 H          11.9268   -1.7308    0.0000 H       1  UNL1        0.0276
    106 H          11.5197   -1.0441    0.0000 H       1  UNL1        0.0276
    107 H           8.8393   -2.5916    0.0000 H       1  UNL1        0.0277
    108 H           9.2304   -3.2875    0.0000 H       1  UNL1        0.0277
    109 H           9.5462    5.7770    0.0000 H       1  UNL1        0.0236
    110 H           8.7002    6.0072    0.0000 H       1  UNL1        0.0236
    111 H           8.4700    5.1611    0.0000 H       1  UNL1        0.0236
    112 H           8.5072    5.2250    0.0000 H       1  UNL1        0.0236
    113 H           7.8848    4.6074    0.0000 H       1  UNL1        0.0236
    114 H           8.5024    3.9850    0.0000 H       1  UNL1        0.0236
    115 H           9.9829   -3.7297    0.0000 H       1  UNL1        0.0271
    116 H          10.7811   -3.7328    0.0000 H       1  UNL1        0.0271
    117 H           7.3791   -0.3244    0.0000 H       1  UNL1        0.2098
    118 H          12.3258   -3.3305    0.0000 H       1  UNL1        0.0235
    119 H          12.9435   -2.7081    0.0000 H       1  UNL1        0.0235
    120 H          12.3211   -2.0905    0.0000 H       1  UNL1        0.0235
    121 H          11.2911   -3.8905    0.0000 H       1  UNL1        0.0235
    122 H          12.1389   -4.1142    0.0000 H       1  UNL1        0.0235
    123 H          12.3625   -3.2664    0.0000 H       1  UNL1        0.0235
    124 H          11.3247    6.0063    0.0000 H       1  UNL1        0.0938
    125 H          10.8029    7.3224    0.0000 H       1  UNL1        0.0671
    126 H           8.2700   -3.9322    0.0000 H       1  UNL1        0.1097
    127 H          11.6818    8.4323    0.0000 H       1  UNL1        0.0648
    128 H          13.0566    5.9862    0.0000 H       1  UNL1        0.0741
    129 H           7.7331   -5.2422    0.0000 H       1  UNL1        0.0825
    130 H          13.6087    7.2900    0.0000 H       1  UNL1        0.0652
    131 H          10.4904    8.7561    0.0000 H       1  UNL1        0.2101
    132 H           6.3301   -5.4322    0.0000 H       1  UNL1        0.0663
    133 H           5.7890   -3.0396    0.0000 H       1  UNL1        0.0588
    134 H           5.3905   -3.7299    0.0000 H       1  UNL1        0.0588
    135 H           5.4641   -4.3122    0.0000 H       1  UNL1        0.0644
    136 H          11.6934    9.4322    0.0000 H       1  UNL1        0.2100
    137 H          13.9543    8.7161    0.0000 H       1  UNL1        0.2100
    138 H           4.5981   -4.8122    0.0000 H       1  UNL1        0.2100
    139 H           6.0010   -6.0022    0.0000 H       1  UNL1        0.0938
    140 H          15.3290    6.2700    0.0000 H       1  UNL1        0.2951
    141 H           6.5380   -7.3122    0.0000 H       1  UNL1        0.0671
    142 H          10.9417   -5.2299    0.0000 H       1  UNL1        0.0381
    143 H          10.5432   -4.5396    0.0000 H       1  UNL1        0.0381
    144 H           5.6720   -8.4322    0.0000 H       1  UNL1        0.0648
    145 H           4.2690   -6.0022    0.0000 H       1  UNL1        0.0647
    146 H           3.7320   -7.3122    0.0000 H       1  UNL1        0.0647
    147 H           9.7206   -6.0146    0.0000 H       1  UNL1        0.0318
    148 H          10.1191   -6.7049    0.0000 H       1  UNL1        0.0318
    149 H           7.4040   -7.8122    0.0000 H       1  UNL1        0.2101
    150 H           3.8015   -5.6473    0.0000 H       1  UNL1        0.0584
    151 H           3.0044   -5.6473    0.0000 H       1  UNL1        0.0584
    152 H           5.6720   -9.4322    0.0000 H       1  UNL1        0.2100
    153 H           3.4030   -8.7422    0.0000 H       1  UNL1        0.2100
    154 H          12.0632   -5.5022    0.0000 H       1  UNL1        0.0621
    155 H          10.6603   -7.9322    0.0000 H       1  UNL1        0.0621
    156 H           2.0000   -6.3122    0.0000 H       1  UNL1        0.2095
    157 H          13.4662   -6.3122    0.0000 H       1  UNL1        0.0654
    158 H          12.0632   -8.7422    0.0000 H       1  UNL1        0.0654
    159 H          13.7953   -8.7422    0.0000 H       1  UNL1        0.2921
@<TRIPOS>BOND
     1     1    38    1
     2     1    52    1
     3     2    36    1
     4     2   117    1
     5     3    49    1
     6     3    54    1
     7     4    49    2
     8     5    52    1
     9     5    56    1
    10     6    54    1
    11     6    60    1
    12     7    53    1
    13     7   131    1
    14     8    55    1
    15     8   136    1
    16     9    57    1
    17     9    63    1
    18    10    58    1
    19    10   137    1
    20    11    59    1
    21    11    64    1
    22    12    61    1
    23    12   138    1
    24    13    62    1
    25    13   140    1
    26    14    62    2
    27    15    64    1
    28    15    68    1
    29    16    63    2
    30    17    65    1
    31    17   149    1
    32    18    67    1
    33    18   152    1
    34    19    69    1
    35    19   153    1
    36    20    71    1
    37    20   156    1
    38    21    77    1
    39    21   159    1
    40    22    23    1
    41    22    25    1
    42    22    27    1
    43    22    37    1
    44    23    24    1
    45    23    32    1
    46    23    78    1
    47    24    26    1
    48    24    33    1
    49    24    40    1
    50    25    30    1
    51    25    34    1
    52    25    42    1
    53    26    28    1
    54    26    29    1
    55    26    79    1
    56    27    28    1
    57    27    80    1
    58    27    81    1
    59    28    82    1
    60    28    83    1
    61    29    38    1
    62    29    46    1
    63    29    47    1
    64    30    31    1
    65    30    39    2
    66    31    35    1
    67    31    43    1
    68    31    84    1
    69    32    39    1
    70    32    85    1
    71    32    86    1
    72    33    41    1
    73    33    87    1
    74    33    88    1
    75    34    36    1
    76    34    89    1
    77    34    90    1
    78    35    36    1
    79    35    44    1
    80    35    49    1
    81    36    91    1
    82    37    92    1
    83    37    93    1
    84    37    94    1
    85    38    41    1
    86    38    95    1
    87    39    96    1
    88    40    97    1
    89    40    98    1
    90    40    99    1
    91    41   100    1
    92    41   101    1
    93    42   102    1
    94    42   103    1
    95    42   104    1
    96    43    45    1
    97    43   105    1
    98    43   106    1
    99    44    48    1
   100    44   107    1
   101    44   108    1
   102    45    48    1
   103    45    50    1
   104    45    51    1
   105    46   109    1
   106    46   110    1
   107    46   111    1
   108    47   112    1
   109    47   113    1
   110    47   114    1
   111    48   115    1
   112    48   116    1
   113    50   118    1
   114    50   119    1
   115    50   120    1
   116    51   121    1
   117    51   122    1
   118    51   123    1
   119    52    53    1
   120    52   124    1
   121    53    55    1
   122    53   125    1
   123    54    57    1
   124    54   126    1
   125    55    58    1
   126    55   127    1
   127    56    58    1
   128    56    62    1
   129    56   128    1
   130    57    59    1
   131    57   129    1
   132    58   130    1
   133    59    61    1
   134    59   132    1
   135    60    61    1
   136    60   133    1
   137    60   134    1
   138    61   135    1
   139    63    66    1
   140    64    65    1
   141    64   139    1
   142    65    67    1
   143    65   141    1
   144    66    70    1
   145    66   142    1
   146    66   143    1
   147    67    69    1
   148    67   144    1
   149    68    69    1
   150    68    71    1
   151    68   145    1
   152    69   146    1
   153    70    72    1
   154    70   147    1
   155    70   148    1
   156    71   150    1
   157    71   151    1
   158    72    73   ar
   159    72    74   ar
   160    73    75   ar
   161    73   154    1
   162    74    76   ar
   163    74   155    1
   164    75    77   ar
   165    75   157    1
   166    76    77   ar
   167    76   158    1
