@<TRIPOS>MOLECULE
IMPHY002976
 43 45 0 0 0
SMALL
GASTEIGER

@<TRIPOS>ATOM
      1 O          10.7404    0.5547    0.0000 O.3     1  UNL1       -0.4526
      2 O          10.7404   -1.0547    0.0000 O.3     1  UNL1       -0.4526
      3 O           7.1962    1.7500    0.0000 O.2     1  UNL1       -0.2913
      4 O           5.4641    1.7500    0.0000 O.2     1  UNL1       -0.2912
      5 O           3.7320    1.7500    0.0000 O.3     1  UNL1       -0.4943
      6 O           2.0000   -1.2500    0.0000 O.3     1  UNL1       -0.4950
      7 C           6.3301    0.2500    0.0000 C.3     1  UNL1        0.0822
      8 C           7.1962    0.7500    0.0000 C.2     1  UNL1        0.1735
      9 C           8.0622    0.2500    0.0000 C.ar    1  UNL1        0.0218
     10 C           5.4641    0.7500    0.0000 C.2     1  UNL1        0.1769
     11 C           6.3301   -0.7500    0.0000 C.3     1  UNL1       -0.0482
     12 C           4.5981    0.2500    0.0000 C.ar    1  UNL1        0.0599
     13 C           8.9282    0.7500    0.0000 C.ar    1  UNL1       -0.0056
     14 C           9.7942    0.2500    0.0000 C.ar    1  UNL1        0.1669
     15 C           9.7942   -0.7500    0.0000 C.ar    1  UNL1        0.1663
     16 C           8.0622   -0.7500    0.0000 C.ar    1  UNL1       -0.0476
     17 C           3.7320    0.7500    0.0000 C.ar    1  UNL1        0.1340
     18 C           8.9282   -1.2500    0.0000 C.ar    1  UNL1       -0.0155
     19 C           4.5981   -0.7500    0.0000 C.ar    1  UNL1       -0.0443
     20 C          11.3241   -0.2500    0.0000 C.3     1  UNL1        0.2332
     21 C           2.8660    0.2500    0.0000 C.ar    1  UNL1        0.0224
     22 C           3.7320   -1.2500    0.0000 C.ar    1  UNL1       -0.0191
     23 C           2.8660   -0.7500    0.0000 C.ar    1  UNL1        0.1236
     24 C           2.8660    2.2500    0.0000 C.3     1  UNL1        0.0788
     25 C           2.0000   -2.2500    0.0000 C.3     1  UNL1        0.0788
     26 H           6.8671   -0.0600    0.0000 H       1  UNL1        0.0459
     27 H           5.7101   -0.7500    0.0000 H       1  UNL1        0.0241
     28 H           6.3301   -1.3700    0.0000 H       1  UNL1        0.0241
     29 H           6.9501   -0.7500    0.0000 H       1  UNL1        0.0241
     30 H           8.9282    1.3700    0.0000 H       1  UNL1        0.0662
     31 H           7.5252   -1.0600    0.0000 H       1  UNL1        0.0626
     32 H           8.9282   -1.8700    0.0000 H       1  UNL1        0.0655
     33 H           5.1350   -1.0600    0.0000 H       1  UNL1        0.0627
     34 H          11.7849   -0.6647    0.0000 H       1  UNL1        0.1166
     35 H          11.7849    0.1647    0.0000 H       1  UNL1        0.1166
     36 H           2.3291    0.5600    0.0000 H       1  UNL1        0.0691
     37 H           3.7320   -1.8700    0.0000 H       1  UNL1        0.0654
     38 H           3.1760    2.7869    0.0000 H       1  UNL1        0.0660
     39 H           2.3291    2.5600    0.0000 H       1  UNL1        0.0660
     40 H           2.5560    1.7131    0.0000 H       1  UNL1        0.0660
     41 H           1.3800   -2.2500    0.0000 H       1  UNL1        0.0660
     42 H           2.0000   -2.8700    0.0000 H       1  UNL1        0.0660
     43 H           2.6200   -2.2500    0.0000 H       1  UNL1        0.0660
@<TRIPOS>BOND
     1     1    14    1
     2     1    20    1
     3     2    15    1
     4     2    20    1
     5     3     8    2
     6     4    10    2
     7     5    17    1
     8     5    24    1
     9     6    23    1
    10     6    25    1
    11     7     8    1
    12     7    10    1
    13     7    11    1
    14     7    26    1
    15     8     9    1
    16     9    13   ar
    17     9    16   ar
    18    10    12    1
    19    11    27    1
    20    11    28    1
    21    11    29    1
    22    12    17   ar
    23    12    19   ar
    24    13    14   ar
    25    13    30    1
    26    14    15   ar
    27    15    18   ar
    28    16    18   ar
    29    16    31    1
    30    17    21   ar
    31    18    32    1
    32    19    22   ar
    33    19    33    1
    34    20    34    1
    35    20    35    1
    36    21    23   ar
    37    21    36    1
    38    22    23   ar
    39    22    37    1
    40    24    38    1
    41    24    39    1
    42    24    40    1
    43    25    41    1
    44    25    42    1
    45    25    43    1
