@<TRIPOS>MOLECULE
IMPHY008552
 71 74 0 0 0
SMALL
GASTEIGER

@<TRIPOS>ATOM
      1 O           7.4260   -0.1897    0.0000 O.3     1  UNL1       -0.4824
      2 O           3.9061   -0.1897    0.0000 O.3     1  UNL1       -0.4811
      3 O           5.6660    2.8450    0.0000 O.3     1  UNL1       -0.5052
      4 O           7.4144    2.8796    0.0000 O.2     1  UNL1       -0.2917
      5 O           8.3244   -1.6758    0.0000 O.3     1  UNL1       -0.5063
      6 O          11.7884   -1.6892    0.0000 O.3     1  UNL1       -0.5063
      7 O          12.6602   -0.1925    0.0000 O.3     1  UNL1       -0.3830
      8 C           8.3321    0.3242    0.0000 C.3     1  UNL1        0.1355
      9 C           6.5320    0.3450    0.0000 C.ar    1  UNL1        0.1424
     10 C           5.6660   -0.1550    0.0000 C.ar    1  UNL1        0.0412
     11 C           6.5320    1.3450    0.0000 C.ar    1  UNL1        0.1015
     12 C           8.3321    1.3658    0.0000 C.3     1  UNL1        0.0521
     13 C           4.8000    0.3450    0.0000 C.ar    1  UNL1        0.1393
     14 C           3.0000    0.3242    0.0000 C.3     1  UNL1        0.1235
     15 C           4.8000    1.3450    0.0000 C.ar    1  UNL1        0.0591
     16 C           7.4260    1.8797    0.0000 C.2     1  UNL1        0.1741
     17 C           5.6660    1.8450    0.0000 C.ar    1  UNL1        0.1415
     18 C           9.1962   -0.1792    0.0000 C.ar    1  UNL1        0.0350
     19 C           5.6660   -1.1550    0.0000 C.3     1  UNL1       -0.0023
     20 C           3.0000    1.3658    0.0000 C.2     1  UNL1       -0.0408
     21 C           3.9061    1.8797    0.0000 C.2     1  UNL1       -0.0478
     22 C           2.0000    0.3203    0.0000 C.3     1  UNL1       -0.0215
     23 C           2.5033   -0.5438    0.0000 C.3     1  UNL1       -0.0215
     24 C          10.0641    0.3175    0.0000 C.ar    1  UNL1       -0.0421
     25 C           9.1923   -1.1791    0.0000 C.ar    1  UNL1        0.1270
     26 C          10.9282   -0.1858    0.0000 C.ar    1  UNL1        0.0267
     27 C           4.8000   -1.6550    0.0000 C.2     1  UNL1       -0.0807
     28 C          10.0564   -1.6825    0.0000 C.ar    1  UNL1        0.0221
     29 C          10.9243   -1.1858    0.0000 C.ar    1  UNL1        0.1263
     30 C          11.7961    0.3108    0.0000 C.3     1  UNL1        0.1020
     31 C           4.8000   -2.6550    0.0000 C.2     1  UNL1       -0.0793
     32 C          11.8000    1.3108    0.0000 C.2     1  UNL1       -0.0527
     33 C           3.9340   -3.1550    0.0000 C.3     1  UNL1       -0.0440
     34 C           5.6660   -3.1550    0.0000 C.3     1  UNL1       -0.0440
     35 C          12.6679    1.8075    0.0000 C.2     1  UNL1       -0.0769
     36 C          12.6718    2.8075    0.0000 C.3     1  UNL1       -0.0440
     37 C          13.5320    1.3042    0.0000 C.3     1  UNL1       -0.0440
     38 H           8.3285   -0.2958    0.0000 H       1  UNL1        0.0790
     39 H           8.9429    1.2597    0.0000 H       1  UNL1        0.0385
     40 H           8.5411    1.9495    0.0000 H       1  UNL1        0.0385
     41 H           5.8781   -1.7376    0.0000 H       1  UNL1        0.0358
     42 H           6.2766   -1.0473    0.0000 H       1  UNL1        0.0358
     43 H           2.4643    1.6779    0.0000 H       1  UNL1        0.0611
     44 H           3.9132    2.4996    0.0000 H       1  UNL1        0.0624
     45 H           1.9652   -0.2358    0.0000 H       1  UNL1        0.0271
     46 H           2.1954   -1.0819    0.0000 H       1  UNL1        0.0271
     47 H           3.0415   -0.8517    0.0000 H       1  UNL1        0.0271
     48 H           1.9976    0.9403    0.0000 H       1  UNL1        0.0271
     49 H           1.3800    0.3179    0.0000 H       1  UNL1        0.0271
     50 H           2.0024   -0.2997    0.0000 H       1  UNL1        0.0271
     51 H          10.0665    0.9375    0.0000 H       1  UNL1        0.0627
     52 H           4.2631   -1.3450    0.0000 H       1  UNL1        0.0575
     53 H          10.0540   -2.3025    0.0000 H       1  UNL1        0.0691
     54 H          11.7937   -0.3092    0.0000 H       1  UNL1        0.0689
     55 H           5.1291    3.1550    0.0000 H       1  UNL1        0.2922
     56 H          11.2643    1.6229    0.0000 H       1  UNL1        0.0600
     57 H           8.3220   -2.2958    0.0000 H       1  UNL1        0.2921
     58 H           3.6240   -2.6181    0.0000 H       1  UNL1        0.0274
     59 H           5.3560   -3.6919    0.0000 H       1  UNL1        0.0274
     60 H           6.2030   -3.4650    0.0000 H       1  UNL1        0.0274
     61 H           5.9760   -2.6181    0.0000 H       1  UNL1        0.0274
     62 H           3.3970   -3.4650    0.0000 H       1  UNL1        0.0274
     63 H           4.2440   -3.6919    0.0000 H       1  UNL1        0.0274
     64 H          11.7860   -2.3091    0.0000 H       1  UNL1        0.2921
     65 H          13.1984    0.1154    0.0000 H       1  UNL1        0.2107
     66 H          13.2200    0.7684    0.0000 H       1  UNL1        0.0274
     67 H          14.0678    0.9921    0.0000 H       1  UNL1        0.0274
     68 H          13.8441    1.8399    0.0000 H       1  UNL1        0.0274
     69 H          13.2918    2.8051    0.0000 H       1  UNL1        0.0274
     70 H          12.6742    3.4275    0.0000 H       1  UNL1        0.0274
     71 H          12.0518    2.8099    0.0000 H       1  UNL1        0.0274
@<TRIPOS>BOND
     1     1     8    1
     2     1     9    1
     3     2    13    1
     4     2    14    1
     5     3    17    1
     6     3    55    1
     7     4    16    2
     8     5    25    1
     9     5    57    1
    10     6    29    1
    11     6    64    1
    12     7    30    1
    13     7    65    1
    14     8    12    1
    15     8    18    1
    16     8    38    1
    17     9    10   ar
    18     9    11   ar
    19    10    13   ar
    20    10    19    1
    21    11    16    1
    22    11    17   ar
    23    12    16    1
    24    12    39    1
    25    12    40    1
    26    13    15   ar
    27    14    20    1
    28    14    22    1
    29    14    23    1
    30    15    17   ar
    31    15    21    1
    32    18    24   ar
    33    18    25   ar
    34    19    27    1
    35    19    41    1
    36    19    42    1
    37    20    21    2
    38    20    43    1
    39    21    44    1
    40    22    48    1
    41    22    49    1
    42    22    50    1
    43    23    45    1
    44    23    46    1
    45    23    47    1
    46    24    26   ar
    47    24    51    1
    48    25    28   ar
    49    26    29   ar
    50    26    30    1
    51    27    31    2
    52    27    52    1
    53    28    29   ar
    54    28    53    1
    55    30    32    1
    56    30    54    1
    57    31    33    1
    58    31    34    1
    59    32    35    2
    60    32    56    1
    61    33    58    1
    62    33    62    1
    63    33    63    1
    64    34    59    1
    65    34    60    1
    66    34    61    1
    67    35    36    1
    68    35    37    1
    69    36    69    1
    70    36    70    1
    71    36    71    1
    72    37    66    1
    73    37    67    1
    74    37    68    1
