@<TRIPOS>MOLECULE
IMPHY009277
 19 19 0 0 0
SMALL
GASTEIGER

@<TRIPOS>ATOM
      1 O           5.1350   -1.7500    0.0000 O.2     1  UNL1       -0.4246
      2 O           5.1350    1.2500    0.0000 O.3     1  UNL1       -0.4948
      3 O           2.5369   -1.2500    0.0000 O.3     1  UNL1       -0.3873
      4 O           6.8671   -1.7500    0.0000 O.2     1  UNL1       -0.2451
      5 C           4.2690   -1.2500    0.0000 C.ar    1  UNL1        0.1378
      6 C           4.2690   -0.2500    0.0000 C.ar    1  UNL1        0.0208
      7 C           5.1350    0.2500    0.0000 C.ar    1  UNL1        0.1301
      8 C           3.4030   -1.7500    0.0000 C.3     1  UNL1        0.1021
      9 C           6.0010   -0.2500    0.0000 C.ar    1  UNL1        0.0646
     10 C           6.0010   -1.2500    0.0000 C.ar    1  UNL1        0.3405
     11 C           6.0010    1.7500    0.0000 C.3     1  UNL1        0.0788
     12 H           3.7320    0.0600    0.0000 H       1  UNL1        0.0688
     13 H           3.0044   -2.2250    0.0000 H       1  UNL1        0.0638
     14 H           3.8015   -2.2250    0.0000 H       1  UNL1        0.0638
     15 H           6.5380    0.0600    0.0000 H       1  UNL1        0.0726
     16 H           6.3110    1.2131    0.0000 H       1  UNL1        0.0660
     17 H           6.5380    2.0600    0.0000 H       1  UNL1        0.0660
     18 H           5.6910    2.2869    0.0000 H       1  UNL1        0.0660
     19 H           2.0000   -1.5600    0.0000 H       1  UNL1        0.2100
@<TRIPOS>BOND
     1     1     5   ar
     2     1    10   ar
     3     2     7    1
     4     2    11    1
     5     3     8    1
     6     3    19    1
     7     4    10    2
     8     5     6   ar
     9     5     8    1
    10     6     7   ar
    11     6    12    1
    12     7     9   ar
    13     8    13    1
    14     8    14    1
    15     9    10   ar
    16     9    15    1
    17    11    16    1
    18    11    17    1
    19    11    18    1
