@<TRIPOS>MOLECULE
IMPHY001571
 44 48 0 0 0
SMALL
GASTEIGER

@<TRIPOS>ATOM
      1 O           2.8718   -0.5688    0.0000 O.3     1  UNL1       -0.4908
      2 O           2.8560   -2.6170    0.0000 O.3     1  UNL1       -0.4914
      3 O           2.9562    2.6714    0.0000 O.3     1  UNL1       -0.4526
      4 O           4.4081    3.5096    0.0000 O.3     1  UNL1       -0.4526
      5 N           7.2334   -1.0667    0.0000 N.pl3   1  UNL1       -0.3321
      6 C           5.5080   -1.0719    0.0000 C.ar    1  UNL1        0.0107
      7 C           6.3740   -0.5719    0.0000 C.ar    1  UNL1        0.0382
      8 C           5.5240   -2.1134    0.0000 C.ar    1  UNL1       -0.0327
      9 C           6.4011   -2.5762    0.0000 C.3     1  UNL1       -0.0112
     10 C           4.6419   -0.5719    0.0000 C.ar    1  UNL1        0.0373
     11 C           7.2469   -2.0583    0.0000 C.3     1  UNL1        0.0159
     12 C           4.6419    0.4281    0.0000 C.ar    1  UNL1       -0.0027
     13 C           5.5080    0.9281    0.0000 C.ar    1  UNL1       -0.0117
     14 C           6.3740    0.4281    0.0000 C.ar    1  UNL1       -0.0322
     15 C           3.7319   -1.0787    0.0000 C.ar    1  UNL1        0.1698
     16 C           4.6260   -2.6412    0.0000 C.ar    1  UNL1       -0.0124
     17 C           3.7239   -2.1203    0.0000 C.ar    1  UNL1        0.1624
     18 C           3.7319    0.9350    0.0000 C.ar    1  UNL1       -0.0077
     19 C           8.0958   -0.5603    0.0000 C.3     1  UNL1        0.0007
     20 C           5.5240    1.9696    0.0000 C.ar    1  UNL1       -0.0084
     21 C           3.7239    1.9766    0.0000 C.ar    1  UNL1        0.1668
     22 C           4.6260    2.4974    0.0000 C.ar    1  UNL1        0.1668
     23 C           3.3782    3.6170    0.0000 C.3     1  UNL1        0.2332
     24 C           2.0000   -1.0587    0.0000 C.3     1  UNL1        0.0790
     25 C           2.8521   -3.6170    0.0000 C.3     1  UNL1        0.0790
     26 H           6.0190   -3.0644    0.0000 H       1  UNL1        0.0329
     27 H           6.8137   -3.0390    0.0000 H       1  UNL1        0.0329
     28 H           7.4716   -2.6361    0.0000 H       1  UNL1        0.0467
     29 H           7.8555   -1.9399    0.0000 H       1  UNL1        0.0467
     30 H           6.9109    0.7381    0.0000 H       1  UNL1        0.0642
     31 H           4.6284   -3.2612    0.0000 H       1  UNL1        0.0658
     32 H           3.1986    0.6188    0.0000 H       1  UNL1        0.0662
     33 H           8.4097   -1.0949    0.0000 H       1  UNL1        0.0428
     34 H           8.6304   -0.2463    0.0000 H       1  UNL1        0.0428
     35 H           7.7818   -0.0256    0.0000 H       1  UNL1        0.0428
     36 H           6.0645    2.2734    0.0000 H       1  UNL1        0.0661
     37 H           3.5069    4.2235    0.0000 H       1  UNL1        0.1166
     38 H           2.7886    3.8088    0.0000 H       1  UNL1        0.1166
     39 H           1.6962   -0.5182    0.0000 H       1  UNL1        0.0660
     40 H           1.4595   -1.3625    0.0000 H       1  UNL1        0.0660
     41 H           2.3038   -1.5992    0.0000 H       1  UNL1        0.0660
     42 H           2.2321   -3.6146    0.0000 H       1  UNL1        0.0660
     43 H           2.8497   -4.2370    0.0000 H       1  UNL1        0.0660
     44 H           3.4721   -3.6194    0.0000 H       1  UNL1        0.0660
@<TRIPOS>BOND
     1     1    15    1
     2     1    24    1
     3     2    17    1
     4     2    25    1
     5     3    21    1
     6     3    23    1
     7     4    22    1
     8     4    23    1
     9     5     7    1
    10     5    11    1
    11     5    19    1
    12     6     7   ar
    13     6     8   ar
    14     6    10   ar
    15     7    14   ar
    16     8     9    1
    17     8    16   ar
    18     9    11    1
    19     9    26    1
    20     9    27    1
    21    10    12   ar
    22    10    15   ar
    23    11    28    1
    24    11    29    1
    25    12    13   ar
    26    12    18   ar
    27    13    14   ar
    28    13    20   ar
    29    14    30    1
    30    15    17   ar
    31    16    17   ar
    32    16    31    1
    33    18    21   ar
    34    18    32    1
    35    19    33    1
    36    19    34    1
    37    19    35    1
    38    20    22   ar
    39    20    36    1
    40    21    22   ar
    41    23    37    1
    42    23    38    1
    43    24    39    1
    44    24    40    1
    45    24    41    1
    46    25    42    1
    47    25    43    1
    48    25    44    1
