@<TRIPOS>MOLECULE
IMPHY000600
 83 88 0 0 0
SMALL
GASTEIGER

@<TRIPOS>ATOM
      1 O           6.7852    2.8514    0.0000 O.3     1  UNL1       -0.3585
      2 O           9.5679    1.9823    0.0000 O.3     1  UNL1       -0.4581
      3 O           5.1720    1.4487    0.0000 O.3     1  UNL1       -0.3888
      4 O           5.1643    3.4487    0.0000 O.3     1  UNL1       -0.3858
      5 O           8.6084    4.5055    0.0000 O.3     1  UNL1       -0.4496
      6 O           6.8896    5.1874    0.0000 O.3     1  UNL1       -0.4659
      7 O           5.3930    4.3156    0.0000 O.2     1  UNL1       -0.2475
      8 O          10.4016    3.5347    0.0000 O.2     1  UNL1       -0.2466
      9 O           6.8671   -2.7415    0.0000 O.2     1  UNL1       -0.4574
     10 O           5.0597   -1.6887    0.0000 O.2     1  UNL1       -0.2888
     11 O          10.3396    4.5596    0.0000 O.2     1  UNL1       -0.2511
     12 O           5.1350   -2.7415    0.0000 O.3     1  UNL1       -0.3313
     13 O           6.8671   -4.7415    0.0000 O.3     1  UNL1       -0.3829
     14 O           5.1350   -5.7415    0.0000 O.3     1  UNL1       -0.3864
     15 O           3.4030   -4.7415    0.0000 O.3     1  UNL1       -0.3865
     16 O           2.5369   -3.2415    0.0000 O.3     1  UNL1       -0.3924
     17 C           7.7681    1.9587    0.0000 C.3     1  UNL1        0.0468
     18 C           6.9040    1.4554    0.0000 C.3     1  UNL1        0.0055
     19 C           7.7643    2.9587    0.0000 C.3     1  UNL1        0.0602
     20 C           6.8920    0.4138    0.0000 C.3     1  UNL1       -0.0123
     21 C           6.8963    3.4554    0.0000 C.3     1  UNL1        0.2007
     22 C           8.6801    1.4554    0.0000 C.3     1  UNL1        0.1123
     23 C           6.0361    1.9520    0.0000 C.3     1  UNL1        0.0884
     24 C           7.7920   -0.1105    0.0000 C.3     1  UNL1       -0.0068
     25 C           7.1879    2.1601    0.0000 C.3     1  UNL1        0.0591
     26 C           6.0322    2.9520    0.0000 C.3     1  UNL1        0.1210
     27 C           8.6921    0.4138    0.0000 C.3     1  UNL1       -0.0079
     28 C           8.6397    3.5060    0.0000 C.3     1  UNL1        0.2056
     29 C           5.9421   -0.1105    0.0000 C.3     1  UNL1        0.0198
     30 C           5.9079    0.5913    0.0000 C.3     1  UNL1       -0.0583
     31 C           7.8046   -1.1954    0.0000 C.2     1  UNL1       -0.0237
     32 C           6.3930    4.3195    0.0000 C.2     1  UNL1        0.3423
     33 C           9.5476    3.0145    0.0000 C.2     1  UNL1        0.3491
     34 C           5.9295   -1.1954    0.0000 C.2     1  UNL1        0.1979
     35 C           6.8671   -1.7415    0.0000 C.2     1  UNL1        0.1654
     36 C           8.6744   -1.6887    0.0000 C.3     1  UNL1       -0.0397
     37 C           9.4584    5.0323    0.0000 C.2     1  UNL1        0.3047
     38 C           6.3863    6.0515    0.0000 C.3     1  UNL1        0.0818
     39 C           6.0010   -3.2415    0.0000 C.3     1  UNL1        0.2309
     40 C           9.4272    6.0318    0.0000 C.3     1  UNL1        0.0333
     41 C           6.0010   -4.2415    0.0000 C.3     1  UNL1        0.1454
     42 C           5.1350   -4.7415    0.0000 C.3     1  UNL1        0.1152
     43 C           4.2690   -3.2415    0.0000 C.3     1  UNL1        0.1140
     44 C           4.2690   -4.2415    0.0000 C.3     1  UNL1        0.1120
     45 C           3.4030   -2.7415    0.0000 C.3     1  UNL1        0.0731
     46 H           6.1696    1.0276    0.0000 H       1  UNL1        0.0339
     47 H           8.6143    2.9620    0.0000 H       1  UNL1        0.0384
     48 H           9.4212    1.0391    0.0000 H       1  UNL1        0.0740
     49 H           5.4980    2.2600    0.0000 H       1  UNL1        0.0623
     50 H           8.5314   -0.5298    0.0000 H       1  UNL1        0.0353
     51 H           6.5857    2.0125    0.0000 H       1  UNL1        0.0567
     52 H           7.1589    1.5408    0.0000 H       1  UNL1        0.0567
     53 H           6.0298    3.5720    0.0000 H       1  UNL1        0.0654
     54 H           8.9079   -0.1674    0.0000 H       1  UNL1        0.0307
     55 H           9.3017    0.5270    0.0000 H       1  UNL1        0.0307
     56 H           8.0928    3.7980    0.0000 H       1  UNL1        0.0857
     57 H           5.7398    0.4756    0.0000 H       1  UNL1        0.0352
     58 H           5.3300   -0.2095    0.0000 H       1  UNL1        0.0352
     59 H           6.0179    1.2014    0.0000 H       1  UNL1        0.0235
     60 H           5.2977    0.7013    0.0000 H       1  UNL1        0.0235
     61 H           5.7978   -0.0189    0.0000 H       1  UNL1        0.0235
     62 H           4.6339    1.7566    0.0000 H       1  UNL1        0.2099
     63 H           4.6286    3.1366    0.0000 H       1  UNL1        0.2100
     64 H           8.3686   -2.2280    0.0000 H       1  UNL1        0.0276
     65 H           9.2138   -1.9946    0.0000 H       1  UNL1        0.0276
     66 H           8.9803   -1.1494    0.0000 H       1  UNL1        0.0276
     67 H           6.9220    6.3636    0.0000 H       1  UNL1        0.0661
     68 H           6.0742    6.5872    0.0000 H       1  UNL1        0.0661
     69 H           5.8506    5.7394    0.0000 H       1  UNL1        0.0661
     70 H           6.0010   -2.6215    0.0000 H       1  UNL1        0.1084
     71 H          10.0469    6.0512    0.0000 H       1  UNL1        0.0342
     72 H           9.4078    6.6515    0.0000 H       1  UNL1        0.0342
     73 H           8.8075    6.0124    0.0000 H       1  UNL1        0.0342
     74 H           6.0010   -4.8615    0.0000 H       1  UNL1        0.0683
     75 H           4.5981   -5.0515    0.0000 H       1  UNL1        0.0648
     76 H           4.2690   -2.6215    0.0000 H       1  UNL1        0.0647
     77 H           3.7320   -3.9315    0.0000 H       1  UNL1        0.0647
     78 H           6.8671   -5.3615    0.0000 H       1  UNL1        0.2102
     79 H           3.8015   -2.2666    0.0000 H       1  UNL1        0.0584
     80 H           3.0044   -2.2666    0.0000 H       1  UNL1        0.0584
     81 H           4.5981   -6.0515    0.0000 H       1  UNL1        0.2100
     82 H           3.4030   -5.3615    0.0000 H       1  UNL1        0.2100
     83 H           2.0000   -2.9315    0.0000 H       1  UNL1        0.2095
@<TRIPOS>BOND
     1     1    21    1
     2     1    25    1
     3     2    22    1
     4     2    33    1
     5    23     3    1
     6     3    62    1
     7    26     4    1
     8     4    63    1
     9    28     5    1
    10     5    37    1
    11     6    32    1
    12     6    38    1
    13     7    32    2
    14     8    33    2
    15     9    35    1
    16    39     9    1
    17    10    34    2
    18    11    37    2
    19    12    39    1
    20    12    43    1
    21    41    13    1
    22    13    78    1
    23    42    14    1
    24    14    81    1
    25    44    15    1
    26    15    82    1
    27    16    45    1
    28    16    83    1
    29    17    18    1
    30    17    19    1
    31    17    22    1
    32    17    25    1
    33    18    20    1
    34    18    23    1
    35    18    46    1
    36    19    21    1
    37    19    28    1
    38    19    47    1
    39    20    24    1
    40    20    29    1
    41    20    30    1
    42    21    26    1
    43    21    32    1
    44    22    27    1
    45    22    48    1
    46    23    26    1
    47    23    49    1
    48    24    27    1
    49    24    31    1
    50    24    50    1
    51    25    51    1
    52    25    52    1
    53    26    53    1
    54    27    54    1
    55    27    55    1
    56    28    33    1
    57    28    56    1
    58    29    34    1
    59    29    57    1
    60    29    58    1
    61    30    59    1
    62    30    60    1
    63    30    61    1
    64    31    35    2
    65    31    36    1
    66    34    35    1
    67    36    64    1
    68    36    65    1
    69    36    66    1
    70    37    40    1
    71    38    67    1
    72    38    68    1
    73    38    69    1
    74    39    41    1
    75    39    70    1
    76    40    71    1
    77    40    72    1
    78    40    73    1
    79    41    42    1
    80    41    74    1
    81    42    44    1
    82    42    75    1
    83    43    44    1
    84    43    45    1
    85    43    76    1
    86    44    77    1
    87    45    79    1
    88    45    80    1
