@<TRIPOS>MOLECULE
IMPHY010675
 39 39 0 0 0
SMALL
GASTEIGER

@<TRIPOS>ATOM
      1 O           7.0832   -2.5225    0.0000 O.2     1  UNL1       -0.2924
      2 O           2.0000    0.9620    0.0000 O.2     1  UNL1       -0.2977
      3 C           4.7029   -1.3397    0.0000 C.3     1  UNL1       -0.0157
      4 C           4.7029   -0.3397    0.0000 C.2     1  UNL1       -0.0695
      5 C           5.4847   -1.9632    0.0000 C.3     1  UNL1        0.0164
      6 C           3.8019    0.0942    0.0000 C.3     1  UNL1       -0.0248
      7 C           6.4597    0.0613    0.0000 C.3     1  UNL1       -0.0060
      8 C           5.4847    0.2838    0.0000 C.2     1  UNL1       -0.0801
      9 C           6.8936   -0.8397    0.0000 C.2     1  UNL1       -0.0025
     10 C           6.4597   -1.7407    0.0000 C.2     1  UNL1        0.1600
     11 C           3.8019   -1.7736    0.0000 C.3     1  UNL1       -0.0583
     12 C           3.7272    1.0914    0.0000 C.3     1  UNL1        0.0092
     13 C           7.8936   -0.8397    0.0000 C.2     1  UNL1       -0.0689
     14 C           2.8262    1.5253    0.0000 C.2     1  UNL1        0.1306
     15 C           8.3936    0.0263    0.0000 C.3     1  UNL1       -0.0434
     16 C           8.3936   -1.7057    0.0000 C.3     1  UNL1       -0.0434
     17 C           2.7515    2.5225    0.0000 C.3     1  UNL1       -0.0061
     18 H           4.1779   -1.0098    0.0000 H       1  UNL1        0.0347
     19 H           5.0000   -2.3497    0.0000 H       1  UNL1        0.0351
     20 H           5.7538   -2.5218    0.0000 H       1  UNL1        0.0351
     21 H           3.1850    0.1559    0.0000 H       1  UNL1        0.0314
     22 H           3.6340   -0.5026    0.0000 H       1  UNL1        0.0314
     23 H           7.0641    0.1992    0.0000 H       1  UNL1        0.0357
     24 H           6.4597    0.6813    0.0000 H       1  UNL1        0.0357
     25 H           5.3468    0.8883    0.0000 H       1  UNL1        0.0575
     26 H           3.5329   -1.2150    0.0000 H       1  UNL1        0.0236
     27 H           3.2433   -2.0426    0.0000 H       1  UNL1        0.0236
     28 H           4.0710   -2.3322    0.0000 H       1  UNL1        0.0236
     29 H           4.3441    1.0297    0.0000 H       1  UNL1        0.0345
     30 H           3.8951    1.6882    0.0000 H       1  UNL1        0.0345
     31 H           7.8566   -2.0157    0.0000 H       1  UNL1        0.0274
     32 H           8.7036   -2.2426    0.0000 H       1  UNL1        0.0274
     33 H           8.9305   -1.3957    0.0000 H       1  UNL1        0.0274
     34 H           8.9305   -0.2837    0.0000 H       1  UNL1        0.0274
     35 H           8.7036    0.5633    0.0000 H       1  UNL1        0.0274
     36 H           7.8566    0.3363    0.0000 H       1  UNL1        0.0274
     37 H           3.3698    2.5688    0.0000 H       1  UNL1        0.0306
     38 H           2.7052    3.1408    0.0000 H       1  UNL1        0.0306
     39 H           2.1332    2.4762    0.0000 H       1  UNL1        0.0306
@<TRIPOS>BOND
     1     1    10    2
     2     2    14    2
     3     3     4    1
     4     3     5    1
     5     3    11    1
     6     3    18    1
     7     4     6    1
     8     4     8    2
     9     5    10    1
    10     5    19    1
    11     5    20    1
    12     6    12    1
    13     6    21    1
    14     6    22    1
    15     7     8    1
    16     7     9    1
    17     7    23    1
    18     7    24    1
    19     8    25    1
    20     9    10    1
    21     9    13    2
    22    11    26    1
    23    11    27    1
    24    11    28    1
    25    12    14    1
    26    12    29    1
    27    12    30    1
    28    13    15    1
    29    13    16    1
    30    14    17    1
    31    15    34    1
    32    15    35    1
    33    15    36    1
    34    16    31    1
    35    16    32    1
    36    16    33    1
    37    17    37    1
    38    17    38    1
    39    17    39    1
