@<TRIPOS>MOLECULE
IMPHY008653
 51 51 0 0 0
SMALL
GASTEIGER

@<TRIPOS>ATOM
      1 O           8.5991    0.0000    0.0000 O.2     1  UNL1       -0.2970
      2 O           7.7331    1.5000    0.0000 O.2     1  UNL1       -0.2970
      3 O           4.2690    5.5000    0.0000 O.3     1  UNL1       -0.4915
      4 O           2.5369    4.5000    0.0000 O.3     1  UNL1       -0.5033
      5 C           8.5991   -3.0000    0.0000 C.3     1  UNL1       -0.0527
      6 C           9.4651   -3.5000    0.0000 C.3     1  UNL1       -0.0531
      7 C           8.5991   -2.0000    0.0000 C.3     1  UNL1       -0.0464
      8 C           9.4651   -4.5000    0.0000 C.3     1  UNL1       -0.0533
      9 C           7.7331   -1.5000    0.0000 C.3     1  UNL1        0.0062
     10 C          10.3312   -5.0000    0.0000 C.3     1  UNL1       -0.0559
     11 C           7.7331   -0.5000    0.0000 C.2     1  UNL1        0.1404
     12 C           6.8671    0.0000    0.0000 C.3     1  UNL1        0.0643
     13 C           6.0010    1.5000    0.0000 C.3     1  UNL1        0.0102
     14 C           6.0010    2.5000    0.0000 C.3     1  UNL1       -0.0209
     15 C           6.8671    1.0000    0.0000 C.2     1  UNL1        0.1407
     16 C          10.3312   -6.0000    0.0000 C.3     1  UNL1       -0.0653
     17 C           5.1350    3.0000    0.0000 C.ar    1  UNL1       -0.0433
     18 C           5.1350    4.0000    0.0000 C.ar    1  UNL1       -0.0131
     19 C           4.2690    2.5000    0.0000 C.ar    1  UNL1       -0.0549
     20 C           4.2690    4.5000    0.0000 C.ar    1  UNL1        0.1615
     21 C           3.4030    3.0000    0.0000 C.ar    1  UNL1       -0.0163
     22 C           3.4030    4.0000    0.0000 C.ar    1  UNL1        0.1585
     23 C           5.1350    6.0000    0.0000 C.3     1  UNL1        0.0790
     24 H           7.9885   -2.8923    0.0000 H       1  UNL1        0.0265
     25 H           8.3871   -3.5826    0.0000 H       1  UNL1        0.0265
     26 H          10.0757   -3.6077    0.0000 H       1  UNL1        0.0265
     27 H           9.6772   -2.9174    0.0000 H       1  UNL1        0.0265
     28 H           9.2097   -2.1077    0.0000 H       1  UNL1        0.0269
     29 H           8.8112   -1.4174    0.0000 H       1  UNL1        0.0269
     30 H           8.8546   -4.3923    0.0000 H       1  UNL1        0.0265
     31 H           9.2531   -5.0826    0.0000 H       1  UNL1        0.0265
     32 H           7.1225   -1.3923    0.0000 H       1  UNL1        0.0342
     33 H           7.5210   -2.0826    0.0000 H       1  UNL1        0.0342
     34 H          10.9417   -5.1077    0.0000 H       1  UNL1        0.0263
     35 H          10.5432   -4.4174    0.0000 H       1  UNL1        0.0263
     36 H           6.2565    0.1077    0.0000 H       1  UNL1        0.0419
     37 H           6.6550   -0.5826    0.0000 H       1  UNL1        0.0419
     38 H           5.3905    1.6077    0.0000 H       1  UNL1        0.0345
     39 H           5.7890    0.9174    0.0000 H       1  UNL1        0.0345
     40 H           6.6116    2.3923    0.0000 H       1  UNL1        0.0317
     41 H           6.2131    3.0826    0.0000 H       1  UNL1        0.0317
     42 H           9.7112   -6.0000    0.0000 H       1  UNL1        0.0230
     43 H          10.3312   -6.6200    0.0000 H       1  UNL1        0.0230
     44 H          10.9512   -6.0000    0.0000 H       1  UNL1        0.0230
     45 H           5.6720    4.3100    0.0000 H       1  UNL1        0.0658
     46 H           4.2690    1.8800    0.0000 H       1  UNL1        0.0621
     47 H           2.8660    2.6900    0.0000 H       1  UNL1        0.0655
     48 H           2.0000    4.1900    0.0000 H       1  UNL1        0.2923
     49 H           5.4450    5.4631    0.0000 H       1  UNL1        0.0660
     50 H           5.6720    6.3100    0.0000 H       1  UNL1        0.0660
     51 H           4.8250    6.5369    0.0000 H       1  UNL1        0.0660
@<TRIPOS>BOND
     1     1    11    2
     2     2    15    2
     3     3    20    1
     4     3    23    1
     5     4    22    1
     6     4    48    1
     7     5     6    1
     8     5     7    1
     9     5    24    1
    10     5    25    1
    11     6     8    1
    12     6    26    1
    13     6    27    1
    14     7     9    1
    15     7    28    1
    16     7    29    1
    17     8    10    1
    18     8    30    1
    19     8    31    1
    20     9    11    1
    21     9    32    1
    22     9    33    1
    23    10    16    1
    24    10    34    1
    25    10    35    1
    26    11    12    1
    27    12    15    1
    28    12    36    1
    29    12    37    1
    30    13    14    1
    31    13    15    1
    32    13    38    1
    33    13    39    1
    34    14    17    1
    35    14    40    1
    36    14    41    1
    37    16    42    1
    38    16    43    1
    39    16    44    1
    40    17    18   ar
    41    17    19   ar
    42    18    20   ar
    43    18    45    1
    44    19    21   ar
    45    19    46    1
    46    20    22   ar
    47    21    22   ar
    48    21    47    1
    49    23    49    1
    50    23    50    1
    51    23    51    1
