@<TRIPOS>MOLECULE
IMPHY009487
 114 123 0 0 0
SMALL
GASTEIGER

@<TRIPOS>ATOM
      1 O           6.8740   -4.6720    0.0000 O.3     1  UNL1       -0.4570
      2 O           8.1415   -2.7173    0.0000 O.3     1  UNL1       -0.3733
      3 O           8.8846   -3.3865    0.0000 O.3     1  UNL1       -0.4658
      4 O           8.6767   -4.3646    0.0000 O.2     1  UNL1       -0.2474
      5 O           9.6205    4.2658    0.0000 O.3     1  UNL1       -0.3546
      6 O           8.2439    1.7730    0.0000 O.3     1  UNL1       -0.4947
      7 O           8.1611   -5.8310    0.0000 O.2     1  UNL1       -0.2512
      8 O           6.5925    0.4600    0.0000 O.3     1  UNL1       -0.4670
      9 O           8.0111    6.3662    0.0000 O.2     1  UNL1       -0.2723
     10 O           5.3077    0.5049    0.0000 O.2     1  UNL1       -0.2494
     11 N           4.4475   -2.4433    0.0000 N.3     1  UNL1       -0.2939
     12 N           7.5270   -1.4428    0.0000 N.pl3   1  UNL1       -0.3252
     13 N           7.0566    4.9209    0.0000 N.am    1  UNL1       -0.2984
     14 N           4.6919    1.8570    0.0000 N.ar    1  UNL1       -0.3565
     15 C           5.9873   -1.9430    0.0000 C.3     1  UNL1        0.0369
     16 C           5.3618   -2.6377    0.0000 C.3     1  UNL1        0.0348
     17 C           6.9016   -2.1374    0.0000 C.3     1  UNL1        0.0772
     18 C           5.6507   -3.5266    0.0000 C.3     1  UNL1        0.0453
     19 C           7.1904   -3.0264    0.0000 C.3     1  UNL1        0.2195
     20 C           5.6022   -0.9074    0.0000 C.3     1  UNL1       -0.0272
     21 C           6.5650   -3.7210    0.0000 C.3     1  UNL1        0.1542
     22 C           6.3239   -0.3594    0.0000 C.ar    1  UNL1       -0.0162
     23 C           4.1587   -1.5544    0.0000 C.3     1  UNL1        0.0005
     24 C           5.9597   -4.4777    0.0000 C.3     1  UNL1       -0.0418
     25 C           7.2382   -0.5538    0.0000 C.ar    1  UNL1        0.0372
     26 C           5.0252   -4.2213    0.0000 C.2     1  UNL1       -0.0755
     27 C           3.8221   -3.1380    0.0000 C.3     1  UNL1        0.0175
     28 C           4.1109   -4.0269    0.0000 C.2     1  UNL1       -0.0733
     29 C           6.0350    0.5295    0.0000 C.ar    1  UNL1       -0.0481
     30 C           7.9335   -3.6955    0.0000 C.2     1  UNL1        0.3446
     31 C           8.4781   -1.1337    0.0000 C.3     1  UNL1        0.0011
     32 C           7.8636    0.1408    0.0000 C.ar    1  UNL1        0.0017
     33 C           5.2906   -5.2208    0.0000 C.3     1  UNL1       -0.0643
     34 C           6.6605    1.2241    0.0000 C.ar    1  UNL1        0.0172
     35 C           6.3515    2.1752    0.0000 C.3     1  UNL1        0.1361
     36 C           7.5748    1.0298    0.0000 C.ar    1  UNL1        0.1265
     37 C           7.8310    3.3716    0.0000 C.3     1  UNL1        0.0060
     38 C           8.7255    3.8188    0.0000 C.3     1  UNL1        0.1018
     39 C           7.3147    2.4971    0.0000 C.3     1  UNL1       -0.0208
     40 C           8.7855    4.8170    0.0000 C.3     1  UNL1        0.1713
     41 C           7.1830   -5.6231    0.0000 C.2     1  UNL1        0.3043
     42 C           6.9966    3.9227    0.0000 C.3     1  UNL1        0.0201
     43 C           5.4130    2.5635    0.0000 C.ar    1  UNL1        0.0418
     44 C           7.9511    5.3680    0.0000 C.2     1  UNL1        0.2502
     45 C           5.9768    1.2480    0.0000 C.2     1  UNL1        0.3235
     46 C           8.8456    5.8152    0.0000 C.3     1  UNL1       -0.0155
     47 C           4.9590    3.4720    0.0000 C.ar    1  UNL1       -0.0162
     48 C           6.0472    5.0328    0.0000 C.3     1  UNL1        0.0188
     49 C           6.5139   -6.3662    0.0000 C.3     1  UNL1        0.0332
     50 C           9.6278   -4.0556    0.0000 C.3     1  UNL1        0.0818
     51 C           5.2116    4.4556    0.0000 C.3     1  UNL1       -0.0095
     52 C           3.9610    3.3191    0.0000 C.ar    1  UNL1        0.0032
     53 C           9.7400    6.2623    0.0000 C.3     1  UNL1       -0.0621
     54 C           3.7963    2.3231    0.0000 C.ar    1  UNL1        0.0470
     55 C           9.2220    1.5650    0.0000 C.3     1  UNL1        0.0788
     56 C           3.1587    3.9989    0.0000 C.ar    1  UNL1       -0.0523
     57 C           2.8178    1.9378    0.0000 C.ar    1  UNL1       -0.0378
     58 C           7.7313    0.6201    0.0000 C.3     1  UNL1        0.0817
     59 C           2.1716    3.6364    0.0000 C.ar    1  UNL1       -0.0611
     60 C           2.0000    2.5989    0.0000 C.ar    1  UNL1       -0.0598
     61 H           4.9470   -3.0984    0.0000 H       1  UNL1        0.0482
     62 H           7.5080   -2.2663    0.0000 H       1  UNL1        0.0544
     63 H           6.1785   -0.6787    0.0000 H       1  UNL1        0.0287
     64 H           5.3610   -0.3363    0.0000 H       1  UNL1        0.0287
     65 H           7.1714   -3.8499    0.0000 H       1  UNL1        0.0779
     66 H           3.9255   -0.9799    0.0000 H       1  UNL1        0.0427
     67 H           3.5762   -1.7669    0.0000 H       1  UNL1        0.0427
     68 H           6.3414   -4.9663    0.0000 H       1  UNL1        0.0273
     69 H           6.5071   -4.1866    0.0000 H       1  UNL1        0.0273
     70 H           5.2168   -4.8109    0.0000 H       1  UNL1        0.0577
     71 H           3.4404   -2.6494    0.0000 H       1  UNL1        0.0470
     72 H           3.2747   -3.4290    0.0000 H       1  UNL1        0.0470
     73 H           3.6961   -4.4877    0.0000 H       1  UNL1        0.0582
     74 H           5.4286    0.6584    0.0000 H       1  UNL1        0.0625
     75 H           8.5563   -2.2566    0.0000 H       1  UNL1        0.2111
     76 H           8.6697   -1.7234    0.0000 H       1  UNL1        0.0428
     77 H           9.0677   -0.9421    0.0000 H       1  UNL1        0.0428
     78 H           8.2865   -0.5441    0.0000 H       1  UNL1        0.0428
     79 H           8.4701    0.0119    0.0000 H       1  UNL1        0.0673
     80 H           4.8298   -4.8060    0.0000 H       1  UNL1        0.0230
     81 H           4.8757   -5.6816    0.0000 H       1  UNL1        0.0230
     82 H           5.7513   -5.6357    0.0000 H       1  UNL1        0.0230
     83 H           8.2538    2.9182    0.0000 H       1  UNL1        0.0343
     84 H           8.6745    2.9703    0.0000 H       1  UNL1        0.0633
     85 H           7.3378    1.8776    0.0000 H       1  UNL1        0.0287
     86 H           7.9157    2.3449    0.0000 H       1  UNL1        0.0287
     87 H           6.3935    4.0669    0.0000 H       1  UNL1        0.0468
     88 H           6.7499    3.3539    0.0000 H       1  UNL1        0.0468
     89 H           8.6689    6.4094    0.0000 H       1  UNL1        0.0296
     90 H           8.2296    5.7443    0.0000 H       1  UNL1        0.0296
     91 H           6.2862    5.6049    0.0000 H       1  UNL1        0.0468
     92 H           5.5655    5.4232    0.0000 H       1  UNL1        0.0468
     93 H           6.0531   -5.9514    0.0000 H       1  UNL1        0.0342
     94 H           6.0990   -6.8270    0.0000 H       1  UNL1        0.0342
     95 H           6.9746   -6.7811    0.0000 H       1  UNL1        0.0342
     96 H           9.2129   -4.5163    0.0000 H       1  UNL1        0.0661
     97 H          10.0885   -4.4704    0.0000 H       1  UNL1        0.0661
     98 H          10.0426   -3.5948    0.0000 H       1  UNL1        0.0661
     99 H           5.0170    5.0443    0.0000 H       1  UNL1        0.0329
    100 H           4.5920    4.4346    0.0000 H       1  UNL1        0.0329
    101 H           4.3675    1.3287    0.0000 H       1  UNL1        0.1656
    102 H          10.0172    5.7077    0.0000 H       1  UNL1        0.0231
    103 H          10.2946    6.5395    0.0000 H       1  UNL1        0.0231
    104 H           9.4628    6.8168    0.0000 H       1  UNL1        0.0231
    105 H           9.0931    0.9586    0.0000 H       1  UNL1        0.0660
    106 H           9.8285    1.4361    0.0000 H       1  UNL1        0.0660
    107 H           9.3510    2.1715    0.0000 H       1  UNL1        0.0660
    108 H           3.2670    4.6094    0.0000 H       1  UNL1        0.0624
    109 H           2.7237    1.3250    0.0000 H       1  UNL1        0.0638
    110 H           7.8176    0.0061    0.0000 H       1  UNL1        0.0661
    111 H           8.3453    0.7063    0.0000 H       1  UNL1        0.0661
    112 H           7.6450    1.2340    0.0000 H       1  UNL1        0.0661
    113 H           1.6940    4.0317    0.0000 H       1  UNL1        0.0618
    114 H           1.4205    2.3784    0.0000 H       1  UNL1        0.0618
@<TRIPOS>BOND
     1    21     1    1
     2     1    41    1
     3     2    19    1
     4     2    75    1
     5     3    30    1
     6     3    50    1
     7     4    30    2
     8     5    38    1
     9     5    40    1
    10     6    36    1
    11     6    55    1
    12     7    41    2
    13     8    45    1
    14     8    58    1
    15     9    44    2
    16    10    45    2
    17    11    16    1
    18    11    23    1
    19    11    27    1
    20    12    17    1
    21    12    25    1
    22    12    31    1
    23    13    42    1
    24    13    44   am
    25    13    48    1
    26    14    43   ar
    27    14    54   ar
    28    14   101    1
    29    15    16    1
    30    15    17    1
    31    15    20    1
    32    15    22    1
    33    16    18    1
    34    16    61    1
    35    17    19    1
    36    17    62    1
    37    18    21    1
    38    18    24    1
    39    18    26    1
    40    19    21    1
    41    19    30    1
    42    20    23    1
    43    20    63    1
    44    20    64    1
    45    21    65    1
    46    22    25   ar
    47    22    29   ar
    48    23    66    1
    49    23    67    1
    50    24    33    1
    51    24    68    1
    52    24    69    1
    53    25    32   ar
    54    26    28    2
    55    26    70    1
    56    27    28    1
    57    27    71    1
    58    27    72    1
    59    28    73    1
    60    29    34   ar
    61    29    74    1
    62    31    76    1
    63    31    77    1
    64    31    78    1
    65    32    36   ar
    66    32    79    1
    67    33    80    1
    68    33    81    1
    69    33    82    1
    70    34    35    1
    71    34    36   ar
    72    35    39    1
    73    35    43    1
    74    35    45    1
    75    37    38    1
    76    37    39    1
    77    37    42    1
    78    37    83    1
    79    38    40    1
    80    38    84    1
    81    39    85    1
    82    39    86    1
    83    40    44    1
    84    40    46    1
    85    41    49    1
    86    42    87    1
    87    42    88    1
    88    43    47   ar
    89    46    53    1
    90    46    89    1
    91    46    90    1
    92    47    51    1
    93    47    52   ar
    94    48    51    1
    95    48    91    1
    96    48    92    1
    97    49    93    1
    98    49    94    1
    99    49    95    1
   100    50    96    1
   101    50    97    1
   102    50    98    1
   103    51    99    1
   104    51   100    1
   105    52    54   ar
   106    52    56   ar
   107    53   102    1
   108    53   103    1
   109    53   104    1
   110    54    57   ar
   111    55   105    1
   112    55   106    1
   113    55   107    1
   114    56    59   ar
   115    56   108    1
   116    57    60   ar
   117    57   109    1
   118    58   110    1
   119    58   111    1
   120    58   112    1
   121    59    60   ar
   122    59   113    1
   123    60   114    1
