@<TRIPOS>MOLECULE
IMPHY006174
 9 8 0 0 0
SMALL
GASTEIGER

@<TRIPOS>ATOM
      1 O           5.1350    0.2500    0.0000 O.3     1  UNL1       -0.3838
      2 O           2.5369    0.7500    0.0000 O.3     1  UNL1       -0.4790
      3 O           3.4030   -0.7500    0.0000 O.2     1  UNL1       -0.2484
      4 C           4.2690    0.7500    0.0000 C.3     1  UNL1        0.1408
      5 C           3.4030    0.2500    0.0000 C.2     1  UNL1        0.3305
      6 H           4.6675    1.2250    0.0000 H       1  UNL1        0.0674
      7 H           3.8705    1.2250    0.0000 H       1  UNL1        0.0674
      8 H           5.6720    0.5600    0.0000 H       1  UNL1        0.2101
      9 H           2.0000    0.4400    0.0000 H       1  UNL1        0.2951
@<TRIPOS>BOND
     1     1     4    1
     2     1     8    1
     3     2     5    1
     4     2     9    1
     5     3     5    2
     6     4     5    1
     7     4     6    1
     8     4     7    1
