@<TRIPOS>MOLECULE
IMPHY015543
 40 43 0 0 0
SMALL
GASTEIGER

@<TRIPOS>ATOM
      1 O           5.5468   -1.4054    0.0000 O.3     1  UNL1       -0.3642
      2 C           3.7702    0.6014    0.0000 C.3     1  UNL1       -0.0239
      3 C           3.7702   -0.3986    0.0000 C.3     1  UNL1        0.0056
      4 C           4.6362    1.1014    0.0000 C.3     1  UNL1       -0.0316
      5 C           4.6362   -0.8986    0.0000 C.3     1  UNL1        0.1018
      6 C           3.7699    1.6018    0.0000 C.3     1  UNL1       -0.0281
      7 C           4.6523   -1.9401    0.0000 C.3     1  UNL1        0.0890
      8 C           5.5022    0.6014    0.0000 C.3     1  UNL1       -0.0467
      9 C           5.5022   -0.3986    0.0000 C.3     1  UNL1       -0.0205
     10 C           2.8602   -0.9054    0.0000 C.3     1  UNL1       -0.0354
     11 C           3.7542   -2.4679    0.0000 C.3     1  UNL1       -0.0236
     12 C           2.9042    0.1014    0.0000 C.3     1  UNL1       -0.0563
     13 C           2.8522   -1.9470    0.0000 C.3     1  UNL1       -0.0474
     14 C           4.2699    2.4679    0.0000 C.3     1  UNL1       -0.0593
     15 C           2.7699    1.6018    0.0000 C.3     1  UNL1       -0.0593
     16 C           2.0000   -0.3955    0.0000 C.3     1  UNL1       -0.0618
     17 H           3.1502    0.6013    0.0000 H       1  UNL1        0.0315
     18 H           4.9463    1.6383    0.0000 H       1  UNL1        0.0309
     19 H           4.9684   -2.4735    0.0000 H       1  UNL1        0.0625
     20 H           6.1128    0.4937    0.0000 H       1  UNL1        0.0269
     21 H           5.7143    1.1840    0.0000 H       1  UNL1        0.0269
     22 H           5.7143   -0.9812    0.0000 H       1  UNL1        0.0294
     23 H           6.1128   -0.2909    0.0000 H       1  UNL1        0.0294
     24 H           2.3203   -1.2103    0.0000 H       1  UNL1        0.0304
     25 H           3.3569   -2.9438    0.0000 H       1  UNL1        0.0291
     26 H           4.1552   -2.9408    0.0000 H       1  UNL1        0.0291
     27 H           3.2142    0.6383    0.0000 H       1  UNL1        0.0236
     28 H           2.3672    0.4114    0.0000 H       1  UNL1        0.0236
     29 H           2.5942   -0.4355    0.0000 H       1  UNL1        0.0236
     30 H           2.2421   -1.8362    0.0000 H       1  UNL1        0.0269
     31 H           2.6386   -2.5291    0.0000 H       1  UNL1        0.0269
     32 H           4.8069    2.1579    0.0000 H       1  UNL1        0.0235
     33 H           4.5799    3.0048    0.0000 H       1  UNL1        0.0235
     34 H           3.7330    2.7779    0.0000 H       1  UNL1        0.0235
     35 H           2.7699    2.2218    0.0000 H       1  UNL1        0.0235
     36 H           2.1499    1.6018    0.0000 H       1  UNL1        0.0235
     37 H           2.7699    0.9818    0.0000 H       1  UNL1        0.0235
     38 H           2.3162    0.1378    0.0000 H       1  UNL1        0.0233
     39 H           1.4667   -0.0793    0.0000 H       1  UNL1        0.0233
     40 H           1.6838   -0.9288    0.0000 H       1  UNL1        0.0233
@<TRIPOS>BOND
     1     1     5    1
     2     1     7    1
     3     2     3    1
     4     2     4    1
     5     2     6    1
     6     2    17    1
     7     3     5    1
     8     3    10    1
     9     3    12    1
    10     4     6    1
    11     4     8    1
    12     4    18    1
    13     5     7    1
    14     5     9    1
    15     6    14    1
    16     6    15    1
    17     7    11    1
    18     7    19    1
    19     8     9    1
    20     8    20    1
    21     8    21    1
    22     9    22    1
    23     9    23    1
    24    10    13    1
    25    10    16    1
    26    10    24    1
    27    11    13    1
    28    11    25    1
    29    11    26    1
    30    12    27    1
    31    12    28    1
    32    12    29    1
    33    13    30    1
    34    13    31    1
    35    14    32    1
    36    14    33    1
    37    14    34    1
    38    15    35    1
    39    15    36    1
    40    15    37    1
    41    16    38    1
    42    16    39    1
    43    16    40    1
