@<TRIPOS>MOLECULE
IMPHY015982
 32 31 0 0 0
SMALL
GASTEIGER

@<TRIPOS>ATOM
      1 O           2.8660   -1.0600    0.0000 O.2     1  UNL1       -0.2977
      2 C           8.0622   -0.0600    0.0000 C.3     1  UNL1       -0.0496
      3 C           8.9282    0.4400    0.0000 C.3     1  UNL1       -0.0530
      4 C           7.1962    0.4400    0.0000 C.3     1  UNL1       -0.0348
      5 C           9.7942   -0.0600    0.0000 C.3     1  UNL1       -0.0559
      6 C           6.3301   -0.0600    0.0000 C.2     1  UNL1       -0.0879
      7 C           4.5981   -0.0600    0.0000 C.3     1  UNL1       -0.0281
      8 C          10.6603    0.4400    0.0000 C.3     1  UNL1       -0.0653
      9 C           5.4641    0.4400    0.0000 C.2     1  UNL1       -0.0875
     10 C           3.7320    0.4400    0.0000 C.3     1  UNL1        0.0090
     11 C           2.8660   -0.0600    0.0000 C.2     1  UNL1        0.1306
     12 C           2.0000    0.4400    0.0000 C.3     1  UNL1       -0.0061
     13 H           7.6636   -0.5349    0.0000 H       1  UNL1        0.0268
     14 H           8.4607   -0.5349    0.0000 H       1  UNL1        0.0268
     15 H           9.3267    0.9149    0.0000 H       1  UNL1        0.0265
     16 H           8.5297    0.9149    0.0000 H       1  UNL1        0.0265
     17 H           7.5947    0.9149    0.0000 H       1  UNL1        0.0307
     18 H           6.7976    0.9149    0.0000 H       1  UNL1        0.0307
     19 H           9.3957   -0.5349    0.0000 H       1  UNL1        0.0263
     20 H          10.1928   -0.5349    0.0000 H       1  UNL1        0.0263
     21 H           6.3301   -0.6800    0.0000 H       1  UNL1        0.0569
     22 H           4.1996   -0.5349    0.0000 H       1  UNL1        0.0311
     23 H           4.9966   -0.5349    0.0000 H       1  UNL1        0.0311
     24 H           5.4641    1.0600    0.0000 H       1  UNL1        0.0569
     25 H          10.9703   -0.0969    0.0000 H       1  UNL1        0.0230
     26 H          11.1972    0.7500    0.0000 H       1  UNL1        0.0230
     27 H          10.3503    0.9769    0.0000 H       1  UNL1        0.0230
     28 H           4.1306    0.9149    0.0000 H       1  UNL1        0.0344
     29 H           3.3335    0.9149    0.0000 H       1  UNL1        0.0344
     30 H           2.3100    0.9769    0.0000 H       1  UNL1        0.0306
     31 H           1.4631    0.7500    0.0000 H       1  UNL1        0.0306
     32 H           1.6900   -0.0969    0.0000 H       1  UNL1        0.0306
@<TRIPOS>BOND
     1     1    11    2
     2     2     3    1
     3     2     4    1
     4     2    13    1
     5     2    14    1
     6     3     5    1
     7     3    15    1
     8     3    16    1
     9     4     6    1
    10     4    17    1
    11     4    18    1
    12     5     8    1
    13     5    19    1
    14     5    20    1
    15     6     9    2
    16     6    21    1
    17     7     9    1
    18     7    10    1
    19     7    22    1
    20     7    23    1
    21     8    25    1
    22     8    26    1
    23     8    27    1
    24     9    24    1
    25    10    11    1
    26    10    28    1
    27    10    29    1
    28    11    12    1
    29    12    30    1
    30    12    31    1
    31    12    32    1
