@<TRIPOS>MOLECULE
IMPHY008517
 97 100 0 0 0
SMALL
GASTEIGER

@<TRIPOS>ATOM
      1 CL          6.5200    1.2832    0.0000 Cl      1  UNL1       -0.0778
      2 O           5.3267    0.4168    0.0000 O.3     1  UNL1       -0.3608
      3 O           5.2249   -1.0862    0.0000 O.3     1  UNL1       -0.4566
      4 O           4.0434    3.1583    0.0000 O.3     1  UNL1       -0.4465
      5 O           5.7754    5.1583    0.0000 O.3     1  UNL1       -0.3686
      6 O           7.0640    5.5646    0.0000 O.3     1  UNL1       -0.3712
      7 O           7.9510   -2.3388    0.0000 O.2     1  UNL1       -0.2751
      8 O           3.1773    4.6583    0.0000 O.2     1  UNL1       -0.2264
      9 O           6.1555   -2.5470    0.0000 O.2     1  UNL1       -0.2487
     10 O           2.7384   -3.6971    0.0000 O.2     1  UNL1       -0.2756
     11 O           6.5199    2.3058    0.0000 O.3     1  UNL1       -0.4936
     12 N           4.9094    4.6583    0.0000 N.am    1  UNL1       -0.2504
     13 N           8.2754   -0.7078    0.0000 N.am    1  UNL1       -0.2729
     14 N           4.4688   -3.6216    0.0000 N.am    1  UNL1       -0.2913
     15 C           6.3271    0.4171    0.0000 C.3     1  UNL1        0.1306
     16 C           5.8271    1.2831    0.0000 C.3     1  UNL1        0.0977
     17 C           4.9094    1.6583    0.0000 C.3     1  UNL1        0.0226
     18 C           6.0683   -0.5488    0.0000 C.3     1  UNL1        0.1423
     19 C           4.9094    2.6583    0.0000 C.3     1  UNL1        0.1139
     20 C           7.1932   -0.0828    0.0000 C.3     1  UNL1       -0.0298
     21 C           3.9095    1.6714    0.0000 C.3     1  UNL1       -0.0566
     22 C           5.7754    3.1583    0.0000 C.3     1  UNL1        0.0335
     23 C           6.5683   -1.4149    0.0000 C.3     1  UNL1        0.0644
     24 C           5.7754    4.1583    0.0000 C.3     1  UNL1        0.1684
     25 C           6.6414    4.6583    0.0000 C.3     1  UNL1        0.1223
     26 C           7.5683   -1.4149    0.0000 C.2     1  UNL1        0.2232
     27 C           4.0434    4.1583    0.0000 C.2     1  UNL1        0.4027
     28 C           5.2685   -2.0852    0.0000 C.2     1  UNL1        0.3279
     29 C           4.4251   -2.6225    0.0000 C.3     1  UNL1        0.1198
     30 C           7.5075    4.1583    0.0000 C.2     1  UNL1       -0.0513
     31 C           8.2754    0.2922    0.0000 C.ar    1  UNL1        0.0581
     32 C           9.1993   -1.0904    0.0000 C.3     1  UNL1        0.0083
     33 C           3.5381   -2.1608    0.0000 C.3     1  UNL1       -0.0360
     34 C           8.5075    4.1583    0.0000 C.2     1  UNL1       -0.0632
     35 C           8.0602    5.6517    0.0000 C.3     1  UNL1        0.0374
     36 C           9.1414    0.7922    0.0000 C.ar    1  UNL1       -0.0351
     37 C           7.3899    0.7899    0.0000 C.ar    1  UNL1        0.1038
     38 C           5.3558   -4.0833    0.0000 C.3     1  UNL1        0.0040
     39 C           3.6254   -4.1588    0.0000 C.2     1  UNL1        0.2157
     40 C           9.0075    3.2922    0.0000 C.2     1  UNL1       -0.0627
     41 C           9.1414    1.7922    0.0000 C.ar    1  UNL1       -0.0381
     42 C          10.0075    2.2922    0.0000 C.3     1  UNL1       -0.0063
     43 C          10.0075    3.2922    0.0000 C.2     1  UNL1       -0.0683
     44 C           7.3859    1.8058    0.0000 C.ar    1  UNL1        0.1404
     45 C           8.2676    2.3103    0.0000 C.ar    1  UNL1       -0.0149
     46 C           3.6690   -5.1579    0.0000 C.3     1  UNL1        0.0213
     47 C          10.7146    3.9993    0.0000 C.3     1  UNL1       -0.0432
     48 C           2.8256   -5.6952    0.0000 C.3     1  UNL1       -0.0570
     49 C           6.5199    3.3058    0.0000 C.3     1  UNL1        0.0789
     50 H           6.2523    2.0191    0.0000 H       1  UNL1        0.0630
     51 H           4.5047    1.1886    0.0000 H       1  UNL1        0.0360
     52 H           5.4536   -0.4679    0.0000 H       1  UNL1        0.0769
     53 H           4.1733    2.2333    0.0000 H       1  UNL1        0.0739
     54 H           7.5031    0.4542    0.0000 H       1  UNL1        0.0259
     55 H           7.7302   -0.3927    0.0000 H       1  UNL1        0.0259
     56 H           6.8833   -0.6198    0.0000 H       1  UNL1        0.0259
     57 H           3.9014    1.0514    0.0000 H       1  UNL1        0.0234
     58 H           3.2895    1.6795    0.0000 H       1  UNL1        0.0234
     59 H           3.9176    2.2913    0.0000 H       1  UNL1        0.0234
     60 H           6.3860    3.2659    0.0000 H       1  UNL1        0.0346
     61 H           5.9875    2.5756    0.0000 H       1  UNL1        0.0346
     62 H           6.6760   -2.0255    0.0000 H       1  UNL1        0.0396
     63 H           5.9857   -1.6269    0.0000 H       1  UNL1        0.0396
     64 H           6.4810    5.2571    0.0000 H       1  UNL1        0.0686
     65 H           4.5994    5.1952    0.0000 H       1  UNL1        0.1549
     66 H           5.4654    5.6952    0.0000 H       1  UNL1        0.2121
     67 H           4.9751   -2.9088    0.0000 H       1  UNL1        0.0613
     68 H           7.3470    3.5594    0.0000 H       1  UNL1        0.0599
     69 H           9.4366   -0.5176    0.0000 H       1  UNL1        0.0433
     70 H           9.7721   -1.3277    0.0000 H       1  UNL1        0.0433
     71 H           8.9620   -1.6633    0.0000 H       1  UNL1        0.0433
     72 H           3.2518   -2.7107    0.0000 H       1  UNL1        0.0253
     73 H           2.9882   -1.8745    0.0000 H       1  UNL1        0.0253
     74 H           3.8244   -1.6108    0.0000 H       1  UNL1        0.0253
     75 H           8.8175    4.6952    0.0000 H       1  UNL1        0.0615
     76 H           8.0062    6.2694    0.0000 H       1  UNL1        0.0524
     77 H           8.6779    5.7058    0.0000 H       1  UNL1        0.0524
     78 H           8.1143    5.0341    0.0000 H       1  UNL1        0.0524
     79 H           9.6784    0.4822    0.0000 H       1  UNL1        0.0639
     80 H           5.6420   -3.5334    0.0000 H       1  UNL1        0.0429
     81 H           5.9057   -4.3696    0.0000 H       1  UNL1        0.0429
     82 H           5.0695   -4.6332    0.0000 H       1  UNL1        0.0429
     83 H           8.6975    2.7553    0.0000 H       1  UNL1        0.0617
     84 H          10.6180    2.3999    0.0000 H       1  UNL1        0.0358
     85 H          10.2195    1.7096    0.0000 H       1  UNL1        0.0358
     86 H           8.2724    2.9303    0.0000 H       1  UNL1        0.0657
     87 H           4.2743   -5.0237    0.0000 H       1  UNL1        0.0356
     88 H           3.9062   -5.7307    0.0000 H       1  UNL1        0.0356
     89 H          10.2762    4.4377    0.0000 H       1  UNL1        0.0275
     90 H          11.1530    4.4377    0.0000 H       1  UNL1        0.0275
     91 H          11.1530    3.5609    0.0000 H       1  UNL1        0.0275
     92 H           3.1587   -6.2181    0.0000 H       1  UNL1        0.0234
     93 H           2.3027   -6.0283    0.0000 H       1  UNL1        0.0234
     94 H           2.4925   -5.1723    0.0000 H       1  UNL1        0.0234
     95 H           5.8999    3.3058    0.0000 H       1  UNL1        0.0660
     96 H           6.5199    3.9258    0.0000 H       1  UNL1        0.0660
     97 H           7.1399    3.3058    0.0000 H       1  UNL1        0.0660
@<TRIPOS>BOND
     1     1    37    1
     2     2    15    1
     3     2    16    1
     4    18     3    1
     5     3    28    1
     6     4    19    1
     7     4    27    1
     8    24     5    1
     9     5    66    1
    10    25     6    1
    11     6    35    1
    12     7    26    2
    13     8    27    2
    14     9    28    2
    15    10    39    2
    16    11    44    1
    17    11    49    1
    18    12    24    1
    19    12    27   am
    20    12    65    1
    21    13    26   am
    22    13    31    1
    23    13    32    1
    24    14    29    1
    25    14    38    1
    26    14    39   am
    27    15    16    1
    28    15    18    1
    29    15    20    1
    30    16    17    1
    31    16    50    1
    32    17    19    1
    33    17    21    1
    34    17    51    1
    35    18    23    1
    36    18    52    1
    37    19    22    1
    38    19    53    1
    39    20    54    1
    40    20    55    1
    41    20    56    1
    42    21    57    1
    43    21    58    1
    44    21    59    1
    45    22    24    1
    46    22    60    1
    47    22    61    1
    48    23    26    1
    49    23    62    1
    50    23    63    1
    51    24    25    1
    52    25    30    1
    53    25    64    1
    54    28    29    1
    55    29    33    1
    56    29    67    1
    57    30    34    2
    58    30    68    1
    59    31    36   ar
    60    31    37   ar
    61    32    69    1
    62    32    70    1
    63    32    71    1
    64    33    72    1
    65    33    73    1
    66    33    74    1
    67    34    40    1
    68    34    75    1
    69    35    76    1
    70    35    77    1
    71    35    78    1
    72    36    41   ar
    73    36    79    1
    74    37    44   ar
    75    38    80    1
    76    38    81    1
    77    38    82    1
    78    39    46    1
    79    40    43    2
    80    40    83    1
    81    41    42    1
    82    41    45   ar
    83    42    43    1
    84    42    84    1
    85    42    85    1
    86    43    47    1
    87    44    45   ar
    88    45    86    1
    89    46    48    1
    90    46    87    1
    91    46    88    1
    92    47    89    1
    93    47    90    1
    94    47    91    1
    95    48    92    1
    96    48    93    1
    97    48    94    1
    98    49    95    1
    99    49    96    1
   100    49    97    1
