@<TRIPOS>MOLECULE
IMPHY006423
 18 17 0 0 0
SMALL
GASTEIGER

@<TRIPOS>ATOM
      1 S           2.8660    0.2500    0.0000 S.3     1  UNL1       -0.1367
      2 S           8.9282    0.7500    0.0000 S.2     1  UNL1        0.0203
      3 N           7.1962   -0.2500    0.0000 N.2     1  UNL1       -0.2343
      4 C           5.4641   -0.2500    0.0000 C.3     1  UNL1       -0.0136
      5 C           6.3301    0.2500    0.0000 C.3     1  UNL1        0.0530
      6 C           4.5981    0.2500    0.0000 C.2     1  UNL1       -0.0760
      7 C           3.7320   -0.2500    0.0000 C.2     1  UNL1       -0.0328
      8 C           2.0000   -0.2500    0.0000 C.3     1  UNL1       -0.0140
      9 C           8.0622    0.2500    0.0000 C.1     1  UNL1        0.0358
     10 H           5.0656   -0.7249    0.0000 H       1  UNL1        0.0326
     11 H           5.8626   -0.7249    0.0000 H       1  UNL1        0.0326
     12 H           6.7287    0.7249    0.0000 H       1  UNL1        0.0519
     13 H           5.9316    0.7249    0.0000 H       1  UNL1        0.0519
     14 H           4.5981    0.8700    0.0000 H       1  UNL1        0.0578
     15 H           3.7320   -0.8700    0.0000 H       1  UNL1        0.0687
     16 H           1.6900    0.2869    0.0000 H       1  UNL1        0.0344
     17 H           1.4631   -0.5600    0.0000 H       1  UNL1        0.0344
     18 H           2.3100   -0.7869    0.0000 H       1  UNL1        0.0344
@<TRIPOS>BOND
     1     1     7    1
     2     1     8    1
     3     2     9    2
     4     3     5    1
     5     3     9    2
     6     4     5    1
     7     4     6    1
     8     4    10    1
     9     4    11    1
    10     5    12    1
    11     5    13    1
    12     6     7    2
    13     6    14    1
    14     7    15    1
    15     8    16    1
    16     8    17    1
    17     8    18    1
