@<TRIPOS>MOLECULE
IMPHY003898
 85 91 0 0 0
SMALL
GASTEIGER

@<TRIPOS>ATOM
      1 O           7.1982    0.9890    0.0000 O.3     1  UNL1       -0.4482
      2 O           7.7312    3.4325    0.0000 O.3     1  UNL1       -0.4885
      3 O           6.6738    3.4294    0.0000 O.3     1  UNL1       -0.4914
      4 O           9.4311    3.8560    0.0000 O.3     1  UNL1       -0.5032
      5 O           5.0588   -2.9156    0.0000 O.3     1  UNL1       -0.4523
      6 O           3.3259   -3.9156    0.0000 O.3     1  UNL1       -0.4914
      7 N           9.7975   -0.5117    0.0000 N.3     1  UNL1       -0.2977
      8 N           2.8660    1.4892    0.0000 N.3     1  UNL1       -0.2978
      9 C           8.9311   -0.0115    0.0000 C.3     1  UNL1        0.0432
     10 C           3.7325    0.9890    0.0000 C.3     1  UNL1        0.0397
     11 C           8.9311    0.9890    0.0000 C.ar    1  UNL1        0.0193
     12 C           4.5989    1.4892    0.0000 C.ar    1  UNL1       -0.0231
     13 C          10.6640   -0.0115    0.0000 C.3     1  UNL1        0.0032
     14 C           9.7975    1.4892    0.0000 C.ar    1  UNL1       -0.0343
     15 C          10.6640    0.9890    0.0000 C.3     1  UNL1       -0.0143
     16 C           2.8660    2.4897    0.0000 C.3     1  UNL1        0.0032
     17 C           4.5989    2.4897    0.0000 C.ar    1  UNL1       -0.0378
     18 C           8.5245   -0.9147    0.0000 C.3     1  UNL1       -0.0078
     19 C           3.7325    2.9899    0.0000 C.3     1  UNL1       -0.0144
     20 C           3.3259    0.0858    0.0000 C.3     1  UNL1       -0.0078
     21 C           8.0646    1.4892    0.0000 C.ar    1  UNL1        0.1786
     22 C           5.4653    0.9890    0.0000 C.ar    1  UNL1       -0.0107
     23 C           6.3318    1.4892    0.0000 C.ar    1  UNL1        0.1703
     24 C           9.7975   -1.5117    0.0000 C.3     1  UNL1       -0.0122
     25 C           9.7975    2.4897    0.0000 C.ar    1  UNL1       -0.0128
     26 C           5.4653    2.9899    0.0000 C.ar    1  UNL1       -0.0128
     27 C           2.0000    0.9892    0.0000 C.3     1  UNL1       -0.0122
     28 C           7.6581   -1.4149    0.0000 C.ar    1  UNL1       -0.0453
     29 C           8.0646    2.4897    0.0000 C.ar    1  UNL1        0.2043
     30 C           3.3259   -0.9147    0.0000 C.ar    1  UNL1       -0.0419
     31 C           6.3318    2.4897    0.0000 C.ar    1  UNL1        0.1624
     32 C           8.9311    2.9899    0.0000 C.ar    1  UNL1        0.1625
     33 C           4.1924   -1.4149    0.0000 C.ar    1  UNL1       -0.0124
     34 C           6.7917   -0.9147    0.0000 C.ar    1  UNL1       -0.0550
     35 C           7.6581   -2.4154    0.0000 C.ar    1  UNL1       -0.0550
     36 C           2.4595   -1.4149    0.0000 C.ar    1  UNL1       -0.0548
     37 C           4.1924   -2.4154    0.0000 C.ar    1  UNL1        0.1701
     38 C           5.9252   -2.4154    0.0000 C.ar    1  UNL1        0.1286
     39 C           5.9252   -1.4149    0.0000 C.ar    1  UNL1       -0.0191
     40 C           6.7917   -2.9156    0.0000 C.ar    1  UNL1       -0.0191
     41 C           2.4595   -2.4154    0.0000 C.ar    1  UNL1       -0.0160
     42 C           3.3259   -2.9156    0.0000 C.ar    1  UNL1        0.1621
     43 C           7.9138    4.4156    0.0000 C.3     1  UNL1        0.0791
     44 C           6.0310    4.1954    0.0000 C.3     1  UNL1        0.0790
     45 C           2.4599   -4.4156    0.0000 C.3     1  UNL1        0.0790
     46 H           8.1000    0.1669    0.0000 H       1  UNL1        0.0516
     47 H           2.9235    0.7280    0.0000 H       1  UNL1        0.0515
     48 H          10.8760   -0.5941    0.0000 H       1  UNL1        0.0430
     49 H          11.2745    0.0962    0.0000 H       1  UNL1        0.0430
     50 H          11.2745    0.8813    0.0000 H       1  UNL1        0.0326
     51 H          10.8760    1.5716    0.0000 H       1  UNL1        0.0326
     52 H           2.6540    3.0723    0.0000 H       1  UNL1        0.0430
     53 H           2.2554    2.3820    0.0000 H       1  UNL1        0.0430
     54 H           8.6526   -1.5213    0.0000 H       1  UNL1        0.0332
     55 H           8.0646   -0.4989    0.0000 H       1  UNL1        0.0332
     56 H           4.1310    3.4649    0.0000 H       1  UNL1        0.0326
     57 H           3.3339    3.4649    0.0000 H       1  UNL1        0.0326
     58 H           2.8964    0.5329    0.0000 H       1  UNL1        0.0332
     59 H           3.9321   -0.0444    0.0000 H       1  UNL1        0.0332
     60 H           5.4653    0.3690    0.0000 H       1  UNL1        0.0659
     61 H           9.1775   -1.5117    0.0000 H       1  UNL1        0.0391
     62 H           9.7975   -2.1317    0.0000 H       1  UNL1        0.0391
     63 H          10.4175   -1.5117    0.0000 H       1  UNL1        0.0391
     64 H          10.3345    2.7997    0.0000 H       1  UNL1        0.0658
     65 H           5.4653    3.6099    0.0000 H       1  UNL1        0.0658
     66 H           1.6900    1.5262    0.0000 H       1  UNL1        0.0391
     67 H           1.4631    0.6792    0.0000 H       1  UNL1        0.0391
     68 H           2.3100    0.4523    0.0000 H       1  UNL1        0.0391
     69 H           4.7293   -1.1049    0.0000 H       1  UNL1        0.0658
     70 H           6.7917   -0.2947    0.0000 H       1  UNL1        0.0621
     71 H           8.1950   -2.7254    0.0000 H       1  UNL1        0.0621
     72 H           1.9225   -1.1049    0.0000 H       1  UNL1        0.0621
     73 H           5.3883   -1.1049    0.0000 H       1  UNL1        0.0654
     74 H           6.7917   -3.5356    0.0000 H       1  UNL1        0.0654
     75 H           1.9225   -2.7254    0.0000 H       1  UNL1        0.0655
     76 H          10.0511    3.8560    0.0000 H       1  UNL1        0.2923
     77 H           8.5234    4.3024    0.0000 H       1  UNL1        0.0660
     78 H           8.0270    5.0252    0.0000 H       1  UNL1        0.0660
     79 H           7.3042    4.5289    0.0000 H       1  UNL1        0.0660
     80 H           6.5060    4.5940    0.0000 H       1  UNL1        0.0660
     81 H           5.6325    4.6704    0.0000 H       1  UNL1        0.0660
     82 H           5.5561    3.7969    0.0000 H       1  UNL1        0.0660
     83 H           2.1499   -3.8787    0.0000 H       1  UNL1        0.0660
     84 H           1.9230   -4.7256    0.0000 H       1  UNL1        0.0660
     85 H           2.7699   -4.9526    0.0000 H       1  UNL1        0.0660
@<TRIPOS>BOND
     1     1    21    1
     2     1    23    1
     3     2    29    1
     4     2    43    1
     5     3    31    1
     6     3    44    1
     7     4    32    1
     8     4    76    1
     9     5    37    1
    10     5    38    1
    11     6    42    1
    12     6    45    1
    13     7     9    1
    14     7    13    1
    15     7    24    1
    16     8    10    1
    17     8    16    1
    18     8    27    1
    19     9    11    1
    20     9    18    1
    21     9    46    1
    22    10    12    1
    23    10    20    1
    24    10    47    1
    25    11    14   ar
    26    11    21   ar
    27    12    17   ar
    28    12    22   ar
    29    13    15    1
    30    13    48    1
    31    13    49    1
    32    14    15    1
    33    14    25   ar
    34    15    50    1
    35    15    51    1
    36    16    19    1
    37    16    52    1
    38    16    53    1
    39    17    19    1
    40    17    26   ar
    41    18    28    1
    42    18    54    1
    43    18    55    1
    44    19    56    1
    45    19    57    1
    46    20    30    1
    47    20    58    1
    48    20    59    1
    49    21    29   ar
    50    22    23   ar
    51    22    60    1
    52    23    31   ar
    53    24    61    1
    54    24    62    1
    55    24    63    1
    56    25    32   ar
    57    25    64    1
    58    26    31   ar
    59    26    65    1
    60    27    66    1
    61    27    67    1
    62    27    68    1
    63    28    34   ar
    64    28    35   ar
    65    29    32   ar
    66    30    33   ar
    67    30    36   ar
    68    33    37   ar
    69    33    69    1
    70    34    39   ar
    71    34    70    1
    72    35    40   ar
    73    35    71    1
    74    36    41   ar
    75    36    72    1
    76    37    42   ar
    77    38    39   ar
    78    38    40   ar
    79    39    73    1
    80    40    74    1
    81    41    42   ar
    82    41    75    1
    83    43    77    1
    84    43    78    1
    85    43    79    1
    86    44    80    1
    87    44    81    1
    88    44    82    1
    89    45    83    1
    90    45    84    1
    91    45    85    1
