@<TRIPOS>MOLECULE
IMPHY002808
 80 84 0 0 0
SMALL
GASTEIGER

@<TRIPOS>ATOM
      1 O           6.1847   -2.7126    0.0000 O.3     1  UNL1       -0.3915
      2 O           2.5357   -1.6957    0.0000 O.3     1  UNL1       -0.3912
      3 C           7.0628   -0.1433    0.0000 C.3     1  UNL1       -0.0173
      4 C           6.1968    0.3567    0.0000 C.3     1  UNL1       -0.0290
      5 C           5.2868   -0.1502    0.0000 C.3     1  UNL1       -0.0229
      6 C           7.9288    0.3567    0.0000 C.3     1  UNL1       -0.0044
      7 C           5.2787   -1.1918    0.0000 C.3     1  UNL1       -0.0018
      8 C           7.9288    1.3567    0.0000 C.3     1  UNL1       -0.0223
      9 C           7.0789   -1.1848    0.0000 C.3     1  UNL1       -0.0201
     10 C           6.1968    1.3567    0.0000 C.3     1  UNL1       -0.0489
     11 C           6.1808   -1.7126    0.0000 C.3     1  UNL1        0.0597
     12 C           4.3433   -1.7415    0.0000 C.3     1  UNL1       -0.0033
     13 C           7.0628    1.8567    0.0000 C.3     1  UNL1       -0.0483
     14 C           8.8228    1.8913    0.0000 C.3     1  UNL1       -0.0032
     15 C           4.3599    0.4139    0.0000 C.3     1  UNL1       -0.0446
     16 C           7.7056   -0.9094    0.0000 C.3     1  UNL1       -0.0584
     17 C           5.2945    0.8498    0.0000 C.3     1  UNL1       -0.0589
     18 C           3.4037   -1.1990    0.0000 C.3     1  UNL1        0.0607
     19 C           8.8228   -0.1780    0.0000 C.2     1  UNL1       -0.0770
     20 C           3.4120   -0.1141    0.0000 C.3     1  UNL1       -0.0258
     21 C           8.2709   -0.5830    0.0000 C.3     1  UNL1       -0.0553
     22 C           9.7288    1.3775    0.0000 C.2     1  UNL1       -0.0419
     23 C           9.0329    2.9052    0.0000 C.3     1  UNL1       -0.0396
     24 C           9.7288    0.3358    0.0000 C.2     1  UNL1       -0.0615
     25 C           3.8467   -2.6095    0.0000 C.3     1  UNL1       -0.0571
     26 C           4.8466   -2.6056    0.0000 C.3     1  UNL1       -0.0571
     27 C           7.9529    2.3846    0.0000 C.3     1  UNL1       -0.0552
     28 C          10.0619    3.0205    0.0000 C.3     1  UNL1       -0.0301
     29 C          10.4911    2.0782    0.0000 C.2     1  UNL1       -0.0632
     30 C          11.4712    1.8796    0.0000 C.3     1  UNL1       -0.0250
     31 C          12.1333    2.6290    0.0000 C.3     1  UNL1       -0.0589
     32 C          11.7892    0.9315    0.0000 C.3     1  UNL1       -0.0589
     33 H           6.9329    0.7817    0.0000 H       1  UNL1        0.0312
     34 H           5.2820   -2.0418    0.0000 H       1  UNL1        0.0337
     35 H           8.6682    0.9373    0.0000 H       1  UNL1        0.0318
     36 H           7.2969   -1.7652    0.0000 H       1  UNL1        0.0296
     37 H           7.6880   -1.0694    0.0000 H       1  UNL1        0.0296
     38 H           5.9847    1.9393    0.0000 H       1  UNL1        0.0268
     39 H           5.5862    1.2490    0.0000 H       1  UNL1        0.0268
     40 H           6.7195   -2.0195    0.0000 H       1  UNL1        0.0596
     41 H           7.4613    2.3316    0.0000 H       1  UNL1        0.0269
     42 H           6.6643    2.3316    0.0000 H       1  UNL1        0.0269
     43 H           4.7681    0.8805    0.0000 H       1  UNL1        0.0271
     44 H           3.9700    0.8959    0.0000 H       1  UNL1        0.0271
     45 H           7.2306   -1.3079    0.0000 H       1  UNL1        0.0235
     46 H           8.1041   -1.3843    0.0000 H       1  UNL1        0.0235
     47 H           8.1805   -0.5109    0.0000 H       1  UNL1        0.0235
     48 H           5.9145    0.8450    0.0000 H       1  UNL1        0.0235
     49 H           5.2993    1.4698    0.0000 H       1  UNL1        0.0235
     50 H           4.6745    0.8546    0.0000 H       1  UNL1        0.0235
     51 H           3.4025   -1.8190    0.0000 H       1  UNL1        0.0599
     52 H           8.8156   -0.7980    0.0000 H       1  UNL1        0.0578
     53 H           3.2075    0.4712    0.0000 H       1  UNL1        0.0290
     54 H           2.8004   -0.2154    0.0000 H       1  UNL1        0.0290
     55 H           7.6884   -0.7951    0.0000 H       1  UNL1        0.0238
     56 H           8.4830   -1.1656    0.0000 H       1  UNL1        0.0238
     57 H           8.8535   -0.3709    0.0000 H       1  UNL1        0.0238
     58 H           9.0290    3.5252    0.0000 H       1  UNL1        0.0277
     59 H           8.4159    2.9665    0.0000 H       1  UNL1        0.0277
     60 H          10.2646    0.0238    0.0000 H       1  UNL1        0.0618
     61 H           4.3109   -2.9177    0.0000 H       1  UNL1        0.0236
     62 H           5.1587   -3.1413    0.0000 H       1  UNL1        0.0236
     63 H           5.3824   -2.2935    0.0000 H       1  UNL1        0.0236
     64 H           3.3085   -2.3015    0.0000 H       1  UNL1        0.0236
     65 H           3.5387   -3.1476    0.0000 H       1  UNL1        0.0236
     66 H           4.3848   -2.9174    0.0000 H       1  UNL1        0.0236
     67 H           8.2588    2.9239    0.0000 H       1  UNL1        0.0238
     68 H           7.4136    2.6905    0.0000 H       1  UNL1        0.0238
     69 H           7.6471    1.8453    0.0000 H       1  UNL1        0.0238
     70 H          10.6500    3.2168    0.0000 H       1  UNL1        0.0311
     71 H           9.9285    3.6260    0.0000 H       1  UNL1        0.0311
     72 H           6.7228   -3.0205    0.0000 H       1  UNL1        0.2098
     73 H           2.0000   -1.3836    0.0000 H       1  UNL1        0.2098
     74 H          11.2741    2.4674    0.0000 H       1  UNL1        0.0340
     75 H          12.5979    2.2185    0.0000 H       1  UNL1        0.0235
     76 H          12.5438    3.0936    0.0000 H       1  UNL1        0.0235
     77 H          11.6687    3.0395    0.0000 H       1  UNL1        0.0235
     78 H          11.2014    0.7343    0.0000 H       1  UNL1        0.0235
     79 H          11.9863    0.3436    0.0000 H       1  UNL1        0.0235
     80 H          12.3770    1.1286    0.0000 H       1  UNL1        0.0235
@<TRIPOS>BOND
     1    11     1    1
     2     1    72    1
     3    18     2    1
     4     2    73    1
     5     3     4    1
     6     3     6    1
     7     3     9    1
     8     3    16    1
     9     4     5    1
    10     4    10    1
    11     4    33    1
    12     5     7    1
    13     5    15    1
    14     5    17    1
    15     6     8    1
    16     6    19    1
    17     6    21    1
    18     7    11    1
    19     7    12    1
    20     7    34    1
    21     8    13    1
    22     8    14    1
    23     8    35    1
    24     9    11    1
    25     9    36    1
    26     9    37    1
    27    10    13    1
    28    10    38    1
    29    10    39    1
    30    11    40    1
    31    12    18    1
    32    12    25    1
    33    12    26    1
    34    13    41    1
    35    13    42    1
    36    14    22    1
    37    14    23    1
    38    14    27    1
    39    15    20    1
    40    15    43    1
    41    15    44    1
    42    16    45    1
    43    16    46    1
    44    16    47    1
    45    17    48    1
    46    17    49    1
    47    17    50    1
    48    18    20    1
    49    18    51    1
    50    19    24    2
    51    19    52    1
    52    20    53    1
    53    20    54    1
    54    21    55    1
    55    21    56    1
    56    21    57    1
    57    22    24    1
    58    22    29    2
    59    23    28    1
    60    23    58    1
    61    23    59    1
    62    24    60    1
    63    25    64    1
    64    25    65    1
    65    25    66    1
    66    26    61    1
    67    26    62    1
    68    26    63    1
    69    27    67    1
    70    27    68    1
    71    27    69    1
    72    28    29    1
    73    28    70    1
    74    28    71    1
    75    29    30    1
    76    30    31    1
    77    30    32    1
    78    30    74    1
    79    31    75    1
    80    31    76    1
    81    31    77    1
    82    32    78    1
    83    32    79    1
    84    32    80    1
