@<TRIPOS>MOLECULE
IMPHY001756
 75 79 0 0 0
SMALL
GASTEIGER

@<TRIPOS>ATOM
      1 O           6.3301   -0.9050    0.0000 O.3     1  UNL1       -0.3399
      2 O           7.1962    1.5950    0.0000 O.3     1  UNL1       -0.3609
      3 O           4.5981   -0.9050    0.0000 O.3     1  UNL1       -0.3405
      4 O           4.5981    0.0950    0.0000 O.3     1  UNL1       -0.3865
      5 O           4.5981    2.0950    0.0000 O.3     1  UNL1       -0.3865
      6 O           6.3301   -2.9050    0.0000 O.3     1  UNL1       -0.3841
      7 O           4.5981   -3.9050    0.0000 O.3     1  UNL1       -0.3864
      8 O           2.8660   -2.9050    0.0000 O.3     1  UNL1       -0.3865
      9 O           5.4641    3.5950    0.0000 O.3     1  UNL1       -0.3924
     10 O           7.1962   -1.4050    0.0000 O.3     1  UNL1       -0.4945
     11 O           2.0000   -1.4050    0.0000 O.3     1  UNL1       -0.3924
     12 O           8.9282    1.5950    0.0000 O.3     1  UNL1       -0.5054
     13 O          10.6882   -1.4397    0.0000 O.2     1  UNL1       -0.4544
     14 O          10.6766    1.6296    0.0000 O.2     1  UNL1       -0.2869
     15 O          15.0506   -2.9392    0.0000 O.3     1  UNL1       -0.5068
     16 C           6.3301    0.0950    0.0000 C.3     1  UNL1        0.1204
     17 C           5.4641    0.5950    0.0000 C.3     1  UNL1        0.1124
     18 C           7.1962    0.5950    0.0000 C.3     1  UNL1        0.1197
     19 C           5.4641    1.5950    0.0000 C.3     1  UNL1        0.1118
     20 C           6.3301    2.0950    0.0000 C.3     1  UNL1        0.1108
     21 C           5.4641   -1.4050    0.0000 C.3     1  UNL1        0.1884
     22 C           5.4641   -2.4050    0.0000 C.3     1  UNL1        0.1341
     23 C           4.5981   -2.9050    0.0000 C.3     1  UNL1        0.1141
     24 C           3.7320   -2.4050    0.0000 C.3     1  UNL1        0.1119
     25 C           3.7320   -1.4050    0.0000 C.3     1  UNL1        0.1130
     26 C           8.0622    0.0950    0.0000 C.ar    1  UNL1        0.0676
     27 C           6.3301    3.0950    0.0000 C.3     1  UNL1        0.0729
     28 C           2.8660   -0.9050    0.0000 C.3     1  UNL1        0.0730
     29 C           8.9282    0.5950    0.0000 C.ar    1  UNL1        0.1404
     30 C           8.0622   -0.9050    0.0000 C.ar    1  UNL1        0.1328
     31 C           9.7942    0.0950    0.0000 C.ar    1  UNL1        0.1058
     32 C           8.9282   -1.4050    0.0000 C.ar    1  UNL1        0.0237
     33 C           9.7942   -0.9050    0.0000 C.ar    1  UNL1        0.1463
     34 C          10.6882    0.6297    0.0000 C.ar    1  UNL1        0.1966
     35 C          11.5942    0.1158    0.0000 C.ar    1  UNL1        0.0288
     36 C          11.5942   -0.9258    0.0000 C.ar    1  UNL1        0.1392
     37 C           7.1962   -2.4050    0.0000 C.3     1  UNL1        0.0788
     38 C          12.4583   -1.4292    0.0000 C.ar    1  UNL1        0.0176
     39 C          13.3263   -0.9325    0.0000 C.ar    1  UNL1       -0.0476
     40 C          12.4545   -2.4291    0.0000 C.ar    1  UNL1       -0.0476
     41 C          14.1904   -1.4358    0.0000 C.ar    1  UNL1       -0.0195
     42 C          13.3186   -2.9325    0.0000 C.ar    1  UNL1       -0.0195
     43 C          14.1865   -2.4358    0.0000 C.ar    1  UNL1        0.1169
     44 H           6.8671   -0.2150    0.0000 H       1  UNL1        0.0653
     45 H           4.9272    0.9050    0.0000 H       1  UNL1        0.0647
     46 H           7.9323    1.0200    0.0000 H       1  UNL1        0.0676
     47 H           5.4641    2.2150    0.0000 H       1  UNL1        0.0647
     48 H           6.8671    2.4050    0.0000 H       1  UNL1        0.0646
     49 H           5.4641   -0.7850    0.0000 H       1  UNL1        0.0938
     50 H           5.4641   -3.0250    0.0000 H       1  UNL1        0.0671
     51 H           4.0611   -3.2150    0.0000 H       1  UNL1        0.0648
     52 H           3.1951   -2.0950    0.0000 H       1  UNL1        0.0647
     53 H           3.7320   -0.7850    0.0000 H       1  UNL1        0.0647
     54 H           6.9407    2.9873    0.0000 H       1  UNL1        0.0584
     55 H           6.5422    3.6776    0.0000 H       1  UNL1        0.0584
     56 H           4.0611    0.4050    0.0000 H       1  UNL1        0.2100
     57 H           3.2646   -0.4301    0.0000 H       1  UNL1        0.0584
     58 H           2.4675   -0.4301    0.0000 H       1  UNL1        0.0584
     59 H           4.0611    1.7850    0.0000 H       1  UNL1        0.2100
     60 H           6.3301   -3.5250    0.0000 H       1  UNL1        0.2101
     61 H           5.1350   -4.2150    0.0000 H       1  UNL1        0.2100
     62 H           2.8660   -3.5250    0.0000 H       1  UNL1        0.2100
     63 H           8.9282   -2.0250    0.0000 H       1  UNL1        0.0691
     64 H           5.4641    4.2150    0.0000 H       1  UNL1        0.2095
     65 H           2.0000   -2.0250    0.0000 H       1  UNL1        0.2095
     66 H           9.4651    1.9050    0.0000 H       1  UNL1        0.2922
     67 H          12.1300    0.4279    0.0000 H       1  UNL1        0.0693
     68 H           6.5762   -2.4050    0.0000 H       1  UNL1        0.0660
     69 H           7.1962   -3.0250    0.0000 H       1  UNL1        0.0660
     70 H           7.8162   -2.4050    0.0000 H       1  UNL1        0.0660
     71 H          13.3287   -0.3125    0.0000 H       1  UNL1        0.0626
     72 H          11.9163   -2.7371    0.0000 H       1  UNL1        0.0626
     73 H          14.7285   -1.1279    0.0000 H       1  UNL1        0.0654
     74 H          13.3162   -3.5525    0.0000 H       1  UNL1        0.0654
     75 H          15.5887   -2.6312    0.0000 H       1  UNL1        0.2921
@<TRIPOS>BOND
     1    16     1    1
     2    21     1    1
     3     2    18    1
     4     2    20    1
     5     3    21    1
     6     3    25    1
     7    17     4    1
     8     4    56    1
     9    19     5    1
    10     5    59    1
    11    22     6    1
    12     6    60    1
    13    23     7    1
    14     7    61    1
    15    24     8    1
    16     8    62    1
    17     9    27    1
    18     9    64    1
    19    10    30    1
    20    10    37    1
    21    11    28    1
    22    11    65    1
    23    12    29    1
    24    12    66    1
    25    13    33   ar
    26    13    36   ar
    27    14    34    2
    28    15    43    1
    29    15    75    1
    30    16    17    1
    31    16    18    1
    32    16    44    1
    33    17    19    1
    34    17    45    1
    35    18    26    1
    36    18    46    1
    37    19    20    1
    38    19    47    1
    39    20    27    1
    40    20    48    1
    41    21    22    1
    42    21    49    1
    43    22    23    1
    44    22    50    1
    45    23    24    1
    46    23    51    1
    47    24    25    1
    48    24    52    1
    49    25    28    1
    50    25    53    1
    51    26    29   ar
    52    26    30   ar
    53    27    54    1
    54    27    55    1
    55    28    57    1
    56    28    58    1
    57    29    31   ar
    58    30    32   ar
    59    31    33   ar
    60    31    34   ar
    61    32    33   ar
    62    32    63    1
    63    34    35   ar
    64    35    36   ar
    65    35    67    1
    66    36    38    1
    67    37    68    1
    68    37    69    1
    69    37    70    1
    70    38    39   ar
    71    38    40   ar
    72    39    41   ar
    73    39    71    1
    74    40    42   ar
    75    40    72    1
    76    41    43   ar
    77    41    73    1
    78    42    43   ar
    79    42    74    1
