@<TRIPOS>MOLECULE
IMPHY012928
 36 38 0 0 0
SMALL
GASTEIGER

@<TRIPOS>ATOM
      1 O           6.0682   -0.8246    0.0000 O.3     1  UNL1       -0.4828
      2 O           6.0682    2.1754    0.0000 O.2     1  UNL1       -0.2867
      3 O           4.3198   -1.8592    0.0000 O.3     1  UNL1       -0.5009
      4 O           2.5381   -0.8488    0.0000 O.3     1  UNL1       -0.5032
      5 O          11.2644   -0.8246    0.0000 O.3     1  UNL1       -0.4951
      6 C           6.9343    0.6754    0.0000 C.2     1  UNL1        0.0375
      7 C           5.2022    0.6754    0.0000 C.ar    1  UNL1        0.0675
      8 C           6.9343   -0.3246    0.0000 C.3     1  UNL1        0.1184
      9 C           5.2022   -0.3246    0.0000 C.ar    1  UNL1        0.1766
     10 C           6.0682    1.1754    0.0000 C.2     1  UNL1        0.1961
     11 C           7.8003    1.1754    0.0000 C.2     1  UNL1       -0.0445
     12 C           4.3083   -0.8593    0.0000 C.ar    1  UNL1        0.2015
     13 C           4.3083    1.2100    0.0000 C.ar    1  UNL1       -0.0437
     14 C           8.6663    0.6754    0.0000 C.ar    1  UNL1       -0.0243
     15 C           3.4022   -0.3454    0.0000 C.ar    1  UNL1        0.1620
     16 C           3.4022    0.6962    0.0000 C.ar    1  UNL1       -0.0156
     17 C           9.5323    1.1754    0.0000 C.ar    1  UNL1       -0.0511
     18 C           8.6663   -0.3246    0.0000 C.ar    1  UNL1       -0.0511
     19 C          10.3984    0.6754    0.0000 C.ar    1  UNL1       -0.0194
     20 C           9.5323   -0.8246    0.0000 C.ar    1  UNL1       -0.0194
     21 C          10.3984   -0.3246    0.0000 C.ar    1  UNL1        0.1201
     22 C          12.1304   -0.3246    0.0000 C.3     1  UNL1        0.0788
     23 H           7.1463   -0.9072    0.0000 H       1  UNL1        0.0749
     24 H           7.5449   -0.2169    0.0000 H       1  UNL1        0.0749
     25 H           7.8003    1.7954    0.0000 H       1  UNL1        0.0628
     26 H           4.3154    1.8300    0.0000 H       1  UNL1        0.0627
     27 H           2.8665    1.0083    0.0000 H       1  UNL1        0.0655
     28 H           9.5323    1.7954    0.0000 H       1  UNL1        0.0625
     29 H           8.1294   -0.6346    0.0000 H       1  UNL1        0.0625
     30 H          10.9353    0.9854    0.0000 H       1  UNL1        0.0654
     31 H           9.5323   -1.4446    0.0000 H       1  UNL1        0.0654
     32 H           3.7865   -2.1754    0.0000 H       1  UNL1        0.2924
     33 H           2.0000   -0.5408    0.0000 H       1  UNL1        0.2923
     34 H          12.4404   -0.8615    0.0000 H       1  UNL1        0.0660
     35 H          12.6674   -0.0146    0.0000 H       1  UNL1        0.0660
     36 H          11.8204    0.2123    0.0000 H       1  UNL1        0.0660
@<TRIPOS>BOND
     1     1     8    1
     2     1     9    1
     3     2    10    2
     4     3    12    1
     5     3    32    1
     6     4    15    1
     7     4    33    1
     8     5    21    1
     9     5    22    1
    10     6     8    1
    11     6    10    1
    12     6    11    2
    13     7     9   ar
    14     7    10    1
    15     7    13   ar
    16     8    23    1
    17     8    24    1
    18     9    12   ar
    19    11    14    1
    20    11    25    1
    21    12    15   ar
    22    13    16   ar
    23    13    26    1
    24    14    17   ar
    25    14    18   ar
    26    15    16   ar
    27    16    27    1
    28    17    19   ar
    29    17    28    1
    30    18    20   ar
    31    18    29    1
    32    19    21   ar
    33    19    30    1
    34    20    21   ar
    35    20    31    1
    36    22    34    1
    37    22    35    1
    38    22    36    1
