@<TRIPOS>MOLECULE
IMPHY010373
 93 98 0 0 0
SMALL
GASTEIGER

@<TRIPOS>ATOM
      1 O          10.4037    0.0950    0.0000 O.3     1  UNL1       -0.3313
      2 O           9.5376   -2.4050    0.0000 O.3     1  UNL1       -0.3461
      3 O           7.8056   -2.4050    0.0000 O.3     1  UNL1       -0.3431
      4 O          11.2697   -2.4050    0.0000 O.3     1  UNL1       -0.3865
      5 O          11.2697    1.5950    0.0000 O.3     1  UNL1       -0.4532
      6 O          13.0017   -1.4050    0.0000 O.3     1  UNL1       -0.3864
      7 O          13.0017    0.5950    0.0000 O.3     1  UNL1       -0.3829
      8 O           9.5376   -4.4050    0.0000 O.3     1  UNL1       -0.3841
      9 O           4.2755    3.6258    0.0000 O.3     1  UNL1       -0.3339
     10 O           7.8056   -5.4050    0.0000 O.3     1  UNL1       -0.3864
     11 O           6.0736   -4.4050    0.0000 O.3     1  UNL1       -0.3866
     12 O           6.0075    3.6192    0.0000 O.3     1  UNL1       -0.4606
     13 O           4.2639    0.6258    0.0000 O.3     1  UNL1       -0.3864
     14 O           2.5357    1.6325    0.0000 O.3     1  UNL1       -0.3866
     15 O           5.9998    1.6192    0.0000 O.3     1  UNL1       -0.3829
     16 O           9.5376    3.5950    0.0000 O.2     1  UNL1       -0.4507
     17 O           9.5376    0.5950    0.0000 O.2     1  UNL1       -0.2830
     18 O           7.7892    0.5604    0.0000 O.3     1  UNL1       -0.5058
     19 O          13.8678    3.0950    0.0000 O.3     1  UNL1       -0.5033
     20 O          13.8678    5.0950    0.0000 O.3     1  UNL1       -0.5033
     21 C          10.4037   -0.9050    0.0000 C.3     1  UNL1        0.1144
     22 C          11.2697   -1.4050    0.0000 C.3     1  UNL1        0.1120
     23 C          12.1357   -0.9050    0.0000 C.3     1  UNL1        0.1152
     24 C          12.1357    0.0950    0.0000 C.3     1  UNL1        0.1454
     25 C           8.6716   -3.9050    0.0000 C.3     1  UNL1        0.1341
     26 C           8.6716   -2.9050    0.0000 C.3     1  UNL1        0.1879
     27 C           7.8056   -4.4050    0.0000 C.3     1  UNL1        0.1140
     28 C          11.2697    0.5950    0.0000 C.3     1  UNL1        0.2311
     29 C           6.9396   -3.9050    0.0000 C.3     1  UNL1        0.1095
     30 C           9.5376   -1.4050    0.0000 C.3     1  UNL1        0.0796
     31 C           6.9396   -2.9050    0.0000 C.3     1  UNL1        0.0873
     32 C           4.2678    1.6258    0.0000 C.3     1  UNL1        0.1151
     33 C           3.4037    2.1292    0.0000 C.3     1  UNL1        0.1096
     34 C           5.1357    2.1225    0.0000 C.3     1  UNL1        0.1454
     35 C           3.4075    3.1292    0.0000 C.3     1  UNL1        0.0883
     36 C           5.1396    3.1225    0.0000 C.3     1  UNL1        0.2307
     37 C           6.0736   -2.4050    0.0000 C.3     1  UNL1       -0.0361
     38 C           2.5434    3.6325    0.0000 C.3     1  UNL1       -0.0360
     39 C          10.4037    2.0950    0.0000 C.ar    1  UNL1        0.2138
     40 C          10.4037    3.0950    0.0000 C.ar    1  UNL1        0.1810
     41 C           9.5376    1.5950    0.0000 C.ar    1  UNL1        0.2382
     42 C           6.8716    3.1158    0.0000 C.ar    1  UNL1        0.1310
     43 C           8.6716    2.0950    0.0000 C.ar    1  UNL1        0.1092
     44 C           8.6716    3.0950    0.0000 C.ar    1  UNL1        0.1465
     45 C           7.7777    3.6297    0.0000 C.ar    1  UNL1        0.0235
     46 C           6.8716    2.0742    0.0000 C.ar    1  UNL1        0.0226
     47 C           7.7777    1.5603    0.0000 C.ar    1  UNL1        0.1348
     48 C          11.2697    3.5950    0.0000 C.ar    1  UNL1        0.0247
     49 C          12.1357    3.0950    0.0000 C.ar    1  UNL1       -0.0057
     50 C          11.2697    4.5950    0.0000 C.ar    1  UNL1       -0.0473
     51 C          13.0017    3.5950    0.0000 C.ar    1  UNL1        0.1589
     52 C          12.1357    5.0950    0.0000 C.ar    1  UNL1       -0.0159
     53 C          13.0017    4.5950    0.0000 C.ar    1  UNL1        0.1583
     54 H           9.8667   -0.5950    0.0000 H       1  UNL1        0.0647
     55 H          10.7328   -1.7150    0.0000 H       1  UNL1        0.0647
     56 H          12.6727   -0.5950    0.0000 H       1  UNL1        0.0648
     57 H          12.1357    0.7150    0.0000 H       1  UNL1        0.0683
     58 H           9.2086   -3.5950    0.0000 H       1  UNL1        0.0671
     59 H           8.6716   -2.2850    0.0000 H       1  UNL1        0.0937
     60 H           8.3425   -4.7150    0.0000 H       1  UNL1        0.0648
     61 H          10.7328    0.9050    0.0000 H       1  UNL1        0.1084
     62 H           6.4026   -3.5950    0.0000 H       1  UNL1        0.0646
     63 H           9.3256   -0.8224    0.0000 H       1  UNL1        0.0587
     64 H           8.9271   -1.5127    0.0000 H       1  UNL1        0.0587
     65 H           6.9396   -2.2850    0.0000 H       1  UNL1        0.0621
     66 H           3.7296    1.3179    0.0000 H       1  UNL1        0.0648
     67 H           2.8680    2.4412    0.0000 H       1  UNL1        0.0646
     68 H           5.6738    2.4304    0.0000 H       1  UNL1        0.0683
     69 H           3.4099    3.7492    0.0000 H       1  UNL1        0.0621
     70 H           5.1420    3.7425    0.0000 H       1  UNL1        0.1084
     71 H           6.3835   -1.8681    0.0000 H       1  UNL1        0.0255
     72 H           5.5366   -2.0950    0.0000 H       1  UNL1        0.0255
     73 H           5.7636   -2.9419    0.0000 H       1  UNL1        0.0255
     74 H          10.7328   -2.7150    0.0000 H       1  UNL1        0.2100
     75 H          13.0017   -2.0250    0.0000 H       1  UNL1        0.2100
     76 H          13.5387    0.2850    0.0000 H       1  UNL1        0.2102
     77 H          10.0746   -4.0950    0.0000 H       1  UNL1        0.2101
     78 H           7.2687   -5.7150    0.0000 H       1  UNL1        0.2100
     79 H           5.5366   -4.0950    0.0000 H       1  UNL1        0.2100
     80 H           2.8555    4.1682    0.0000 H       1  UNL1        0.0255
     81 H           2.0077    3.9446    0.0000 H       1  UNL1        0.0255
     82 H           2.2314    3.0968    0.0000 H       1  UNL1        0.0255
     83 H           3.7258    0.3179    0.0000 H       1  UNL1        0.2100
     84 H           2.0000    1.9446    0.0000 H       1  UNL1        0.2100
     85 H           5.9974    0.9992    0.0000 H       1  UNL1        0.2102
     86 H           7.7848    4.2496    0.0000 H       1  UNL1        0.0691
     87 H           6.3359    1.7621    0.0000 H       1  UNL1        0.0691
     88 H          12.1357    2.4750    0.0000 H       1  UNL1        0.0662
     89 H          10.7328    4.9050    0.0000 H       1  UNL1        0.0626
     90 H           7.2559    0.2442    0.0000 H       1  UNL1        0.2922
     91 H          12.1357    5.7150    0.0000 H       1  UNL1        0.0655
     92 H          13.8678    2.4750    0.0000 H       1  UNL1        0.2923
     93 H          13.8678    5.7150    0.0000 H       1  UNL1        0.2923
@<TRIPOS>BOND
     1     1    21    1
     2     1    28    1
     3    26     2    1
     4     2    30    1
     5     3    26    1
     6     3    31    1
     7    22     4    1
     8     4    74    1
     9    28     5    1
    10     5    39    1
    11     6    23    1
    12     6    75    1
    13     7    24    1
    14     7    76    1
    15     8    25    1
    16     8    77    1
    17     9    35    1
    18     9    36    1
    19    27    10    1
    20    10    78    1
    21    29    11    1
    22    11    79    1
    23    36    12    1
    24    12    42    1
    25    32    13    1
    26    13    83    1
    27    33    14    1
    28    14    84    1
    29    15    34    1
    30    15    85    1
    31    16    40   ar
    32    16    44   ar
    33    17    41    2
    34    18    47    1
    35    18    90    1
    36    19    51    1
    37    19    92    1
    38    20    53    1
    39    20    93    1
    40    21    22    1
    41    21    30    1
    42    21    54    1
    43    22    23    1
    44    22    55    1
    45    23    24    1
    46    23    56    1
    47    24    28    1
    48    24    57    1
    49    25    26    1
    50    25    27    1
    51    25    58    1
    52    26    59    1
    53    27    29    1
    54    27    60    1
    55    28    61    1
    56    29    31    1
    57    29    62    1
    58    30    63    1
    59    30    64    1
    60    31    37    1
    61    31    65    1
    62    32    33    1
    63    32    34    1
    64    32    66    1
    65    33    35    1
    66    33    67    1
    67    34    36    1
    68    34    68    1
    69    35    38    1
    70    35    69    1
    71    36    70    1
    72    37    71    1
    73    37    72    1
    74    37    73    1
    75    38    80    1
    76    38    81    1
    77    38    82    1
    78    39    40   ar
    79    39    41   ar
    80    40    48    1
    81    41    43   ar
    82    42    45   ar
    83    42    46   ar
    84    43    44   ar
    85    43    47   ar
    86    44    45   ar
    87    45    86    1
    88    46    47   ar
    89    46    87    1
    90    48    49   ar
    91    48    50   ar
    92    49    51   ar
    93    49    88    1
    94    50    52   ar
    95    50    89    1
    96    51    53   ar
    97    52    53   ar
    98    52    91    1
