@<TRIPOS>MOLECULE
IMPHY017075
 41 41 0 0 0
SMALL
GASTEIGER

@<TRIPOS>ATOM
      1 F           5.8301    4.4330    0.0000 F       1  UNL1       -0.1620
      2 F           7.1962    4.0670    0.0000 F       1  UNL1       -0.1620
      3 F           6.8301    2.7010    0.0000 F       1  UNL1       -0.1620
      4 O           5.4641   -0.9330    0.0000 O.3     1  UNL1       -0.4666
      5 O           5.4641    0.0670    0.0000 O.2     1  UNL1       -0.2738
      6 O           4.5981   -2.4330    0.0000 O.2     1  UNL1       -0.2487
      7 O           4.5981    3.5670    0.0000 O.2     1  UNL1       -0.2660
      8 N           3.7320    0.0670    0.0000 N.am    1  UNL1       -0.3006
      9 N           5.4641    2.0670    0.0000 N.am    1  UNL1       -0.2969
     10 C           3.7320   -0.9330    0.0000 C.3     1  UNL1        0.1244
     11 C           2.8660   -1.4330    0.0000 C.3     1  UNL1        0.0012
     12 C           4.5981    1.5670    0.0000 C.3     1  UNL1        0.0968
     13 C           2.8660   -2.4330    0.0000 C.ar    1  UNL1       -0.0451
     14 C           4.5981    0.5670    0.0000 C.2     1  UNL1        0.2337
     15 C           4.5981   -1.4330    0.0000 C.2     1  UNL1        0.3277
     16 C           3.7320    2.0670    0.0000 C.3     1  UNL1       -0.0381
     17 C           3.7320   -2.9330    0.0000 C.ar    1  UNL1       -0.0585
     18 C           2.0000   -2.9330    0.0000 C.ar    1  UNL1       -0.0585
     19 C           3.7320   -3.9330    0.0000 C.ar    1  UNL1       -0.0615
     20 C           2.0000   -3.9330    0.0000 C.ar    1  UNL1       -0.0615
     21 C           5.4641    3.0670    0.0000 C.2     1  UNL1        0.3179
     22 C           2.8660   -4.4330    0.0000 C.ar    1  UNL1       -0.0617
     23 C           6.3301    3.5670    0.0000 C.3     1  UNL1        0.4694
     24 C           6.3301   -1.4330    0.0000 C.3     1  UNL1        0.0817
     25 H           4.2690   -0.6230    0.0000 H       1  UNL1        0.0618
     26 H           2.6540   -0.8504    0.0000 H       1  UNL1        0.0337
     27 H           2.2554   -1.5407    0.0000 H       1  UNL1        0.0337
     28 H           4.5981    2.1870    0.0000 H       1  UNL1        0.0592
     29 H           3.1951    0.3770    0.0000 H       1  UNL1        0.1496
     30 H           4.0420    2.6039    0.0000 H       1  UNL1        0.0252
     31 H           3.1951    2.3770    0.0000 H       1  UNL1        0.0252
     32 H           3.4220    1.5300    0.0000 H       1  UNL1        0.0252
     33 H           6.0010    1.7570    0.0000 H       1  UNL1        0.1497
     34 H           4.2690   -2.6230    0.0000 H       1  UNL1        0.0620
     35 H           1.4631   -2.6230    0.0000 H       1  UNL1        0.0620
     36 H           4.2690   -4.2430    0.0000 H       1  UNL1        0.0618
     37 H           1.4631   -4.2430    0.0000 H       1  UNL1        0.0618
     38 H           2.8660   -5.0530    0.0000 H       1  UNL1        0.0618
     39 H           6.0201   -1.9700    0.0000 H       1  UNL1        0.0661
     40 H           6.8671   -1.7430    0.0000 H       1  UNL1        0.0661
     41 H           6.6401   -0.8961    0.0000 H       1  UNL1        0.0661
@<TRIPOS>BOND
     1     1    23    1
     2     2    23    1
     3     3    23    1
     4     4    15    1
     5     4    24    1
     6     5    14    2
     7     6    15    2
     8     7    21    2
     9    10     8    1
    10     8    14   am
    11     8    29    1
    12    12     9    1
    13     9    21   am
    14     9    33    1
    15    10    11    1
    16    10    15    1
    17    10    25    1
    18    11    13    1
    19    11    26    1
    20    11    27    1
    21    12    14    1
    22    12    16    1
    23    12    28    1
    24    13    17   ar
    25    13    18   ar
    26    16    30    1
    27    16    31    1
    28    16    32    1
    29    17    19   ar
    30    17    34    1
    31    18    20   ar
    32    18    35    1
    33    19    22   ar
    34    19    36    1
    35    20    22   ar
    36    20    37    1
    37    21    23    1
    38    22    38    1
    39    24    39    1
    40    24    40    1
    41    24    41    1
