@<TRIPOS>MOLECULE
IMPHY013817
 20 21 0 0 0
SMALL
GASTEIGER

@<TRIPOS>ATOM
      1 N           5.4641   -0.2500    0.0000 N.ar    1  UNL1       -0.2550
      2 N           2.0000   -1.2500    0.0000 N.ar    1  UNL1       -0.2632
      3 C           3.7320   -0.2500    0.0000 C.ar    1  UNL1        0.0032
      4 C           4.5981    0.2500    0.0000 C.ar    1  UNL1        0.0711
      5 C           4.5981    1.2500    0.0000 C.ar    1  UNL1       -0.0357
      6 C           3.7320   -1.2500    0.0000 C.ar    1  UNL1       -0.0344
      7 C           2.8660    0.2500    0.0000 C.ar    1  UNL1       -0.0344
      8 C           5.4641    1.7500    0.0000 C.ar    1  UNL1       -0.0583
      9 C           2.8660   -1.7500    0.0000 C.ar    1  UNL1        0.0282
     10 C           2.0000   -0.2500    0.0000 C.ar    1  UNL1        0.0282
     11 C           6.3301    1.2500    0.0000 C.ar    1  UNL1       -0.0436
     12 C           6.3301    0.2500    0.0000 C.ar    1  UNL1        0.0283
     13 H           4.0611    1.5600    0.0000 H       1  UNL1        0.0639
     14 H           4.2690   -1.5600    0.0000 H       1  UNL1        0.0639
     15 H           2.8660    0.8700    0.0000 H       1  UNL1        0.0639
     16 H           5.4641    2.3700    0.0000 H       1  UNL1        0.0619
     17 H           2.8660   -2.3700    0.0000 H       1  UNL1        0.0830
     18 H           1.4631    0.0600    0.0000 H       1  UNL1        0.0830
     19 H           6.8671    1.5600    0.0000 H       1  UNL1        0.0633
     20 H           6.8671   -0.0600    0.0000 H       1  UNL1        0.0830
@<TRIPOS>BOND
     1     1     4   ar
     2     1    12   ar
     3     2     9   ar
     4     2    10   ar
     5     3     4    1
     6     3     6   ar
     7     3     7   ar
     8     4     5   ar
     9     5     8   ar
    10     5    13    1
    11     6     9   ar
    12     6    14    1
    13     7    10   ar
    14     7    15    1
    15     8    11   ar
    16     8    16    1
    17     9    17    1
    18    10    18    1
    19    11    12   ar
    20    11    19    1
    21    12    20    1
