@<TRIPOS>MOLECULE
IMPHY007145
 9 8 0 0 0
SMALL
GASTEIGER

@<TRIPOS>ATOM
      1 O           2.5369    0.7500    0.0000 O.3     1  UNL1       -0.4775
      2 O           3.4030   -0.7500    0.0000 O.2     1  UNL1       -0.2458
      3 C           4.2690    0.7500    0.0000 C.2     1  UNL1        0.0153
      4 C           3.4030    0.2500    0.0000 C.2     1  UNL1        0.3290
      5 C           5.1350    0.2500    0.0000 C.2     1  UNL1       -0.0919
      6 H           4.2690    1.3700    0.0000 H       1  UNL1        0.0683
      7 H           5.1350   -0.3700    0.0000 H       1  UNL1        0.0537
      8 H           5.6720    0.5600    0.0000 H       1  UNL1        0.0537
      9 H           2.0000    0.4400    0.0000 H       1  UNL1        0.2954
@<TRIPOS>BOND
     1     1     4    1
     2     1     9    1
     3     2     4    2
     4     3     4    1
     5     3     5    2
     6     3     6    1
     7     5     7    1
     8     5     8    1
