@<TRIPOS>MOLECULE
IMPHY014091
 22 21 0 0 0
SMALL
GASTEIGER

@<TRIPOS>ATOM
      1 O           2.5369    0.2500    0.0000 O.3     1  UNL1       -0.3950
      2 C           5.1350   -0.2500    0.0000 C.3     1  UNL1       -0.0327
      3 C           4.2690    0.2500    0.0000 C.3     1  UNL1       -0.0263
      4 C           6.0010    0.2500    0.0000 C.2     1  UNL1       -0.0879
      5 C           3.4030   -0.2500    0.0000 C.3     1  UNL1        0.0445
      6 C           6.8671   -0.2500    0.0000 C.2     1  UNL1       -0.0882
      7 C           7.7331    0.2500    0.0000 C.3     1  UNL1       -0.0376
      8 C           8.5991   -0.2500    0.0000 C.3     1  UNL1       -0.0618
      9 H           4.7365   -0.7249    0.0000 H       1  UNL1        0.0308
     10 H           5.5335   -0.7249    0.0000 H       1  UNL1        0.0308
     11 H           4.6675    0.7249    0.0000 H       1  UNL1        0.0290
     12 H           3.8705    0.7249    0.0000 H       1  UNL1        0.0290
     13 H           6.0010    0.8700    0.0000 H       1  UNL1        0.0569
     14 H           3.0044   -0.7249    0.0000 H       1  UNL1        0.0557
     15 H           3.8015   -0.7249    0.0000 H       1  UNL1        0.0557
     16 H           8.1316    0.7249    0.0000 H       1  UNL1        0.0305
     17 H           7.3346    0.7249    0.0000 H       1  UNL1        0.0305
     18 H           6.8671   -0.8700    0.0000 H       1  UNL1        0.0569
     19 H           8.2891   -0.7869    0.0000 H       1  UNL1        0.0233
     20 H           9.1360   -0.5600    0.0000 H       1  UNL1        0.0233
     21 H           8.9091    0.2869    0.0000 H       1  UNL1        0.0233
     22 H           2.0000   -0.0600    0.0000 H       1  UNL1        0.2094
@<TRIPOS>BOND
     1     1     5    1
     2     1    22    1
     3     2     3    1
     4     2     4    1
     5     2     9    1
     6     2    10    1
     7     3     5    1
     8     3    11    1
     9     3    12    1
    10     4     6    2
    11     4    13    1
    12     5    14    1
    13     5    15    1
    14     6     7    1
    15     6    18    1
    16     7     8    1
    17     7    16    1
    18     7    17    1
    19     8    19    1
    20     8    20    1
    21     8    21    1
