@<TRIPOS>MOLECULE
IMPHY009946
 14 14 0 0 0
SMALL
GASTEIGER

@<TRIPOS>ATOM
      1 O           3.7320    1.7500    0.0000 O.2     1  UNL1       -0.2957
      2 C           2.8660    0.2500    0.0000 C.ar    1  UNL1        0.0142
      3 C           2.0000   -0.2500    0.0000 C.ar    1  UNL1       -0.0515
      4 C           3.7320   -0.2500    0.0000 C.ar    1  UNL1       -0.0515
      5 C           2.0000   -1.2500    0.0000 C.ar    1  UNL1       -0.0611
      6 C           3.7320   -1.2500    0.0000 C.ar    1  UNL1       -0.0611
      7 C           2.8660   -1.7500    0.0000 C.ar    1  UNL1       -0.0617
      8 C           2.8660    1.2500    0.0000 C.2     1  UNL1        0.1502
      9 H           1.4631    0.0600    0.0000 H       1  UNL1        0.0624
     10 H           4.2690    0.0600    0.0000 H       1  UNL1        0.0624
     11 H           1.4631   -1.5600    0.0000 H       1  UNL1        0.0618
     12 H           4.2690   -1.5600    0.0000 H       1  UNL1        0.0618
     13 H           2.8660   -2.3700    0.0000 H       1  UNL1        0.0618
     14 H           2.3291    1.5600    0.0000 H       1  UNL1        0.1081
@<TRIPOS>BOND
     1     1     8    2
     2     2     3   ar
     3     2     4   ar
     4     2     8    1
     5     3     5   ar
     6     3     9    1
     7     4     6   ar
     8     4    10    1
     9     5     7   ar
    10     5    11    1
    11     6     7   ar
    12     6    12    1
    13     7    13    1
    14     8    14    1
