@<TRIPOS>MOLECULE
IMPHY008902
 46 48 0 0 0
SMALL
GASTEIGER

@<TRIPOS>ATOM
      1 O           5.4983   -2.3557    0.0000 O.3     1  UNL1       -0.4822
      2 O           3.7282   -0.2969    0.0000 O.3     1  UNL1       -0.4568
      3 O           7.2422    0.7205    0.0000 O.2     1  UNL1       -0.4218
      4 O           4.6000    1.1998    0.0000 O.2     1  UNL1       -0.2505
      5 O           8.1364    2.2482    0.0000 O.2     1  UNL1       -0.2452
      6 C           4.5923   -1.8418    0.0000 C.3     1  UNL1        0.1419
      7 C           4.5923   -0.8002    0.0000 C.3     1  UNL1        0.1460
      8 C           5.4983   -0.2864    0.0000 C.3     1  UNL1        0.0204
      9 C           6.3923   -0.8210    0.0000 C.ar    1  UNL1        0.0408
     10 C           3.5923   -1.8457    0.0000 C.3     1  UNL1       -0.0216
     11 C           4.0956   -2.7098    0.0000 C.3     1  UNL1       -0.0216
     12 C           6.3923   -1.8210    0.0000 C.ar    1  UNL1        0.1283
     13 C           7.2583   -0.3210    0.0000 C.ar    1  UNL1        0.1458
     14 C           7.2583   -2.3210    0.0000 C.ar    1  UNL1       -0.0188
     15 C           8.1243   -0.8210    0.0000 C.ar    1  UNL1        0.0181
     16 C           2.8680    1.2065    0.0000 C.3     1  UNL1        0.0534
     17 C           3.7320    0.7031    0.0000 C.2     1  UNL1        0.3103
     18 C           8.1243   -1.8210    0.0000 C.ar    1  UNL1       -0.0476
     19 C           2.8718    2.2064    0.0000 C.3     1  UNL1       -0.0432
     20 C           2.0000    0.7098    0.0000 C.3     1  UNL1       -0.0523
     21 C           9.0343   -0.3142    0.0000 C.ar    1  UNL1       -0.0443
     22 C           2.0077    2.7098    0.0000 C.3     1  UNL1       -0.0645
     23 C           8.1403    1.2482    0.0000 C.ar    1  UNL1        0.3372
     24 C           9.0424    0.7274    0.0000 C.ar    1  UNL1        0.0236
     25 H           4.0547   -1.1092    0.0000 H       1  UNL1        0.0777
     26 H           5.9029    0.1834    0.0000 H       1  UNL1        0.0353
     27 H           5.1047    0.1927    0.0000 H       1  UNL1        0.0353
     28 H           3.5899   -1.2257    0.0000 H       1  UNL1        0.0269
     29 H           2.9723   -1.8481    0.0000 H       1  UNL1        0.0269
     30 H           3.5575   -2.4018    0.0000 H       1  UNL1        0.0269
     31 H           3.7877   -3.2479    0.0000 H       1  UNL1        0.0269
     32 H           4.6337   -3.0177    0.0000 H       1  UNL1        0.0269
     33 H           3.5947   -2.4657    0.0000 H       1  UNL1        0.0269
     34 H           7.2583   -2.9410    0.0000 H       1  UNL1        0.0654
     35 H           2.8656    0.5865    0.0000 H       1  UNL1        0.0410
     36 H           8.6613   -2.1310    0.0000 H       1  UNL1        0.0626
     37 H           3.4820    2.0964    0.0000 H       1  UNL1        0.0270
     38 H           3.0861    2.7882    0.0000 H       1  UNL1        0.0270
     39 H           1.6921    1.2479    0.0000 H       1  UNL1        0.0238
     40 H           1.4619    0.4019    0.0000 H       1  UNL1        0.0238
     41 H           2.3079    0.1717    0.0000 H       1  UNL1        0.0238
     42 H           9.5676   -0.6304    0.0000 H       1  UNL1        0.0627
     43 H           2.3198    3.2455    0.0000 H       1  UNL1        0.0230
     44 H           1.4720    3.0218    0.0000 H       1  UNL1        0.0230
     45 H           1.6956    2.1740    0.0000 H       1  UNL1        0.0230
     46 H           9.5805    1.0354    0.0000 H       1  UNL1        0.0689
@<TRIPOS>BOND
     1     1     6    1
     2     1    12    1
     3     2     7    1
     4     2    17    1
     5     3    13   ar
     6     3    23   ar
     7     4    17    2
     8     5    23    2
     9     6     7    1
    10     6    10    1
    11     6    11    1
    12     7     8    1
    13     7    25    1
    14     8     9    1
    15     8    26    1
    16     8    27    1
    17     9    12   ar
    18     9    13   ar
    19    10    28    1
    20    10    29    1
    21    10    33    1
    22    11    30    1
    23    11    31    1
    24    11    32    1
    25    12    14   ar
    26    13    15   ar
    27    14    18   ar
    28    14    34    1
    29    15    18   ar
    30    15    21   ar
    31    16    17    1
    32    16    19    1
    33    16    20    1
    34    16    35    1
    35    18    36    1
    36    19    22    1
    37    19    37    1
    38    19    38    1
    39    20    39    1
    40    20    40    1
    41    20    41    1
    42    21    24   ar
    43    21    42    1
    44    22    43    1
    45    22    44    1
    46    22    45    1
    47    23    24   ar
    48    24    46    1
