@<TRIPOS>MOLECULE
IMPHY015519
 41 42 0 0 0
SMALL
GASTEIGER

@<TRIPOS>ATOM
      1 C           5.3742    0.2488    0.0000 C.3     1  UNL1       -0.0168
      2 C           6.3189    0.5582    0.0000 C.3     1  UNL1       -0.0371
      3 C           4.5893    0.8684    0.0000 C.3     1  UNL1       -0.0432
      4 C           3.6155    0.6410    0.0000 C.3     1  UNL1       -0.0379
      5 C           5.3792   -0.7512    0.0000 C.2     1  UNL1       -0.0672
      6 C           6.9065   -0.2436    0.0000 C.3     1  UNL1       -0.0462
      7 C           6.3269   -1.0512    0.0000 C.3     1  UNL1       -0.0310
      8 C           3.1861   -0.2621    0.0000 C.3     1  UNL1       -0.0463
      9 C           4.6005   -1.3786    0.0000 C.2     1  UNL1       -0.0731
     10 C           2.9881    1.4197    0.0000 C.3     1  UNL1       -0.0439
     11 C           3.6244   -1.1609    0.0000 C.3     1  UNL1       -0.0315
     12 C           6.6248    1.5103    0.0000 C.3     1  UNL1       -0.0619
     13 C           4.8278   -2.3524    0.0000 C.3     1  UNL1       -0.0435
     14 C           2.0000    1.2657    0.0000 C.3     1  UNL1       -0.0624
     15 C           3.3488    2.3524    0.0000 C.3     1  UNL1       -0.0624
     16 H           5.5229    1.0857    0.0000 H       1  UNL1        0.0348
     17 H           5.8792    0.9954    0.0000 H       1  UNL1        0.0304
     18 H           5.0721    1.2574    0.0000 H       1  UNL1        0.0274
     19 H           4.3175    1.4256    0.0000 H       1  UNL1        0.0274
     20 H           3.8173    1.2272    0.0000 H       1  UNL1        0.0304
     21 H           7.3694   -0.6560    0.0000 H       1  UNL1        0.0271
     22 H           7.3653    0.1734    0.0000 H       1  UNL1        0.0271
     23 H           6.0787   -1.6194    0.0000 H       1  UNL1        0.0310
     24 H           6.8658   -1.3578    0.0000 H       1  UNL1        0.0310
     25 H           2.6994    0.1220    0.0000 H       1  UNL1        0.0271
     26 H           2.7033   -0.6511    0.0000 H       1  UNL1        0.0271
     27 H           2.7644    0.8414    0.0000 H       1  UNL1        0.0298
     28 H           3.0207   -1.3019    0.0000 H       1  UNL1        0.0310
     29 H           3.6275   -1.7809    0.0000 H       1  UNL1        0.0310
     30 H           7.2151    1.3206    0.0000 H       1  UNL1        0.0233
     31 H           6.8145    2.1006    0.0000 H       1  UNL1        0.0233
     32 H           6.0345    1.7000    0.0000 H       1  UNL1        0.0233
     33 H           4.2241   -2.4934    0.0000 H       1  UNL1        0.0274
     34 H           4.9688   -2.9562    0.0000 H       1  UNL1        0.0274
     35 H           5.4316   -2.2114    0.0000 H       1  UNL1        0.0274
     36 H           1.9045    1.8783    0.0000 H       1  UNL1        0.0232
     37 H           1.3874    1.1703    0.0000 H       1  UNL1        0.0232
     38 H           2.0955    0.6531    0.0000 H       1  UNL1        0.0232
     39 H           3.9270    2.1288    0.0000 H       1  UNL1        0.0232
     40 H           3.5724    2.9306    0.0000 H       1  UNL1        0.0232
     41 H           2.7705    2.5760    0.0000 H       1  UNL1        0.0232
@<TRIPOS>BOND
     1     1     2    1
     2     1     3    1
     3     1     5    1
     4     1    16    1
     5     2     6    1
     6     2    12    1
     7     2    17    1
     8     3     4    1
     9     3    18    1
    10     3    19    1
    11     4     8    1
    12     4    10    1
    13     4    20    1
    14     5     7    1
    15     5     9    2
    16     6     7    1
    17     6    21    1
    18     6    22    1
    19     7    23    1
    20     7    24    1
    21     8    11    1
    22     8    25    1
    23     8    26    1
    24     9    11    1
    25     9    13    1
    26    10    14    1
    27    10    15    1
    28    10    27    1
    29    11    28    1
    30    11    29    1
    31    12    30    1
    32    12    31    1
    33    12    32    1
    34    13    33    1
    35    13    34    1
    36    13    35    1
    37    14    36    1
    38    14    37    1
    39    14    38    1
    40    15    39    1
    41    15    40    1
    42    15    41    1
