@<TRIPOS>MOLECULE
IMPHY017752
 23 23 0 0 0
SMALL
GASTEIGER

@<TRIPOS>ATOM
      1 O           4.2690   -2.5000    0.0000 O.3     1  UNL1       -0.4950
      2 O           2.5369    0.5000    0.0000 O.3     1  UNL1       -0.5058
      3 O           5.1350    2.0000    0.0000 O.3     1  UNL1       -0.4644
      4 O           3.4030    2.0000    0.0000 O.2     1  UNL1       -0.2448
      5 C           4.2690    0.5000    0.0000 C.ar    1  UNL1        0.1005
      6 C           3.4030    0.0000    0.0000 C.ar    1  UNL1        0.1343
      7 C           4.2690   -1.5000    0.0000 C.ar    1  UNL1        0.1236
      8 C           5.1350    0.0000    0.0000 C.ar    1  UNL1       -0.0408
      9 C           3.4030   -1.0000    0.0000 C.ar    1  UNL1        0.0223
     10 C           5.1350   -1.0000    0.0000 C.ar    1  UNL1       -0.0189
     11 C           4.2690    1.5000    0.0000 C.2     1  UNL1        0.3425
     12 C           5.1350   -3.0000    0.0000 C.3     1  UNL1        0.0788
     13 C           5.1350    3.0000    0.0000 C.3     1  UNL1        0.0820
     14 H           5.6720    0.3100    0.0000 H       1  UNL1        0.0628
     15 H           2.8660   -1.3100    0.0000 H       1  UNL1        0.0691
     16 H           5.6720   -1.3100    0.0000 H       1  UNL1        0.0654
     17 H           2.0000    0.1900    0.0000 H       1  UNL1        0.2922
     18 H           4.8250   -3.5369    0.0000 H       1  UNL1        0.0660
     19 H           5.6720   -3.3100    0.0000 H       1  UNL1        0.0660
     20 H           5.4450   -2.4631    0.0000 H       1  UNL1        0.0660
     21 H           5.7550    3.0000    0.0000 H       1  UNL1        0.0661
     22 H           5.1350    3.6200    0.0000 H       1  UNL1        0.0661
     23 H           4.5150    3.0000    0.0000 H       1  UNL1        0.0661
@<TRIPOS>BOND
     1     1     7    1
     2     1    12    1
     3     2     6    1
     4     2    17    1
     5     3    11    1
     6     3    13    1
     7     4    11    2
     8     5     6   ar
     9     5     8   ar
    10     5    11    1
    11     6     9   ar
    12     7     9   ar
    13     7    10   ar
    14     8    10   ar
    15     8    14    1
    16     9    15    1
    17    10    16    1
    18    12    18    1
    19    12    19    1
    20    12    20    1
    21    13    21    1
    22    13    22    1
    23    13    23    1
