@<TRIPOS>MOLECULE
IMPHY004249
 146 153 0 0 0
SMALL
GASTEIGER

@<TRIPOS>ATOM
      1 O          12.0647    3.5017    0.0000 O.3     1  UNL1       -0.3915
      2 O          14.7902    6.1324    0.0000 O.3     1  UNL1       -0.3886
      3 O          16.5853    5.0588    0.0000 O.3     1  UNL1       -0.3892
      4 O          12.3382    5.4690    0.0000 O.3     1  UNL1       -0.3944
      5 O          12.9292   -3.1262    0.0000 O.3     1  UNL1       -0.4318
      6 O          12.0632   -1.6262    0.0000 O.2     1  UNL1       -0.2501
      7 O          11.1972   -3.1262    0.0000 O.3     1  UNL1       -0.3312
      8 O          12.9292   -5.1262    0.0000 O.3     1  UNL1       -0.3829
      9 O          11.1972   -6.1262    0.0000 O.3     1  UNL1       -0.3864
     10 O           9.4651   -5.1262    0.0000 O.3     1  UNL1       -0.3865
     11 O           9.4651   -2.1262    0.0000 O.3     1  UNL1       -0.3460
     12 O           8.5991   -0.6262    0.0000 O.3     1  UNL1       -0.3405
     13 O           7.7331   -3.1262    0.0000 O.3     1  UNL1       -0.3841
     14 O           6.0010   -0.1262    0.0000 O.3     1  UNL1       -0.3401
     15 O           6.0010   -2.1262    0.0000 O.3     1  UNL1       -0.3864
     16 O           6.8671    1.3738    0.0000 O.3     1  UNL1       -0.3924
     17 O           5.1350   -1.6262    0.0000 O.3     1  UNL1       -0.3431
     18 O           4.2690    0.8738    0.0000 O.3     1  UNL1       -0.3841
     19 O           2.5369   -0.1262    0.0000 O.3     1  UNL1       -0.3864
     20 O           2.5369   -2.1262    0.0000 O.3     1  UNL1       -0.3866
     21 C          13.8349    1.4429    0.0000 C.3     1  UNL1       -0.0170
     22 C          14.7047    1.9362    0.0000 C.3     1  UNL1       -0.0255
     23 C          14.7288    2.9776    0.0000 C.3     1  UNL1       -0.0202
     24 C          13.8272    0.4429    0.0000 C.3     1  UNL1       -0.0050
     25 C          13.8349    3.5122    0.0000 C.3     1  UNL1        0.0007
     26 C          12.9288    1.9567    0.0000 C.3     1  UNL1       -0.0201
     27 C          12.9288    2.9984    0.0000 C.3     1  UNL1        0.0597
     28 C          13.8349    4.5972    0.0000 C.3     1  UNL1        0.0250
     29 C          14.6893   -0.0637    0.0000 C.2     1  UNL1       -0.0626
     30 C          14.6973   -1.1053    0.0000 C.3     1  UNL1       -0.0008
     31 C          15.6847    3.4908    0.0000 C.3     1  UNL1       -0.0184
     32 C          15.5669    1.4295    0.0000 C.3     1  UNL1       -0.0306
     33 C          12.9133   -0.0569    0.0000 C.3     1  UNL1       -0.0424
     34 C          13.7953   -1.6262    0.0000 C.3     1  UNL1        0.0746
     35 C          12.8488    1.2769    0.0000 C.3     1  UNL1       -0.0584
     36 C          12.8972   -1.0984    0.0000 C.3     1  UNL1       -0.0359
     37 C          14.7787    5.1325    0.0000 C.3     1  UNL1        0.0888
     38 C          15.7098    4.5755    0.0000 C.3     1  UNL1        0.0822
     39 C          15.5870    2.4643    0.0000 C.3     1  UNL1       -0.0588
     40 C          15.5592    0.4296    0.0000 C.2     1  UNL1       -0.0836
     41 C          12.8437    0.6242    0.0000 C.3     1  UNL1       -0.0553
     42 C          15.6452   -1.6333    0.0000 C.3     1  UNL1       -0.0337
     43 C          13.7785   -2.7110    0.0000 C.3     1  UNL1       -0.0364
     44 C          13.3382    5.4652    0.0000 C.3     1  UNL1        0.0524
     45 C          15.6536   -2.7182    0.0000 C.3     1  UNL1       -0.0407
     46 C          12.8349    4.6011    0.0000 C.3     1  UNL1       -0.0547
     47 C          14.7140   -3.2607    0.0000 C.3     1  UNL1       -0.0492
     48 C          12.9292   -2.1262    0.0000 C.2     1  UNL1        0.3161
     49 C          16.5054   -1.1233    0.0000 C.3     1  UNL1       -0.0616
     50 C          16.5215   -3.2149    0.0000 C.3     1  UNL1       -0.0622
     51 C          12.0632   -3.6262    0.0000 C.3     1  UNL1        0.2337
     52 C          12.0632   -4.6262    0.0000 C.3     1  UNL1        0.1455
     53 C          11.1972   -5.1262    0.0000 C.3     1  UNL1        0.1152
     54 C          10.3312   -3.6262    0.0000 C.3     1  UNL1        0.1144
     55 C          10.3312   -4.6262    0.0000 C.3     1  UNL1        0.1120
     56 C           9.4651   -3.1262    0.0000 C.3     1  UNL1        0.0796
     57 C           8.5991   -1.6262    0.0000 C.3     1  UNL1        0.1880
     58 C           7.7331   -2.1262    0.0000 C.3     1  UNL1        0.1341
     59 C           6.8671   -1.6262    0.0000 C.3     1  UNL1        0.1144
     60 C           7.7331   -0.1262    0.0000 C.3     1  UNL1        0.1134
     61 C           6.8671   -0.6262    0.0000 C.3     1  UNL1        0.1184
     62 C           7.7331    0.8738    0.0000 C.3     1  UNL1        0.0730
     63 C           5.1350   -0.6262    0.0000 C.3     1  UNL1        0.1883
     64 C           4.2690   -0.1262    0.0000 C.3     1  UNL1        0.1341
     65 C           3.4030   -0.6262    0.0000 C.3     1  UNL1        0.1140
     66 C           4.2690   -2.1262    0.0000 C.3     1  UNL1        0.0873
     67 C           3.4030   -1.6262    0.0000 C.3     1  UNL1        0.1095
     68 C           4.2690   -3.1262    0.0000 C.3     1  UNL1       -0.0361
     69 H          15.4473    2.3498    0.0000 H       1  UNL1        0.0315
     70 H          13.1004    3.9400    0.0000 H       1  UNL1        0.0338
     71 H          12.3180    2.0628    0.0000 H       1  UNL1        0.0296
     72 H          12.7198    1.3731    0.0000 H       1  UNL1        0.0296
     73 H          12.9324    3.6184    0.0000 H       1  UNL1        0.0596
     74 H          15.4285   -0.6719    0.0000 H       1  UNL1        0.0359
     75 H          15.8802    2.9025    0.0000 H       1  UNL1        0.0296
     76 H          16.2979    3.5828    0.0000 H       1  UNL1        0.0296
     77 H          16.1766    1.3172    0.0000 H       1  UNL1        0.0310
     78 H          15.7834    2.0105    0.0000 H       1  UNL1        0.0310
     79 H          12.7133    0.5300    0.0000 H       1  UNL1        0.0274
     80 H          12.3009   -0.1536    0.0000 H       1  UNL1        0.0274
     81 H          12.7458    1.8883    0.0000 H       1  UNL1        0.0235
     82 H          12.2374    1.1740    0.0000 H       1  UNL1        0.0235
     83 H          12.9517    0.6655    0.0000 H       1  UNL1        0.0235
     84 H          12.2881   -0.9829    0.0000 H       1  UNL1        0.0276
     85 H          12.6792   -1.6788    0.0000 H       1  UNL1        0.0276
     86 H          14.2447    5.4476    0.0000 H       1  UNL1        0.0625
     87 H          16.2401    4.2542    0.0000 H       1  UNL1        0.0619
     88 H          15.2688    1.9322    0.0000 H       1  UNL1        0.0235
     89 H          16.1191    2.1460    0.0000 H       1  UNL1        0.0235
     90 H          15.9053    2.9964    0.0000 H       1  UNL1        0.0235
     91 H          16.0937    0.1154    0.0000 H       1  UNL1        0.0572
     92 H          12.9561    1.2339    0.0000 H       1  UNL1        0.0238
     93 H          12.2340    0.7365    0.0000 H       1  UNL1        0.0238
     94 H          12.7314    0.0144    0.0000 H       1  UNL1        0.0238
     95 H          15.6369   -1.0133    0.0000 H       1  UNL1        0.0307
     96 H          13.1694   -2.5955    0.0000 H       1  UNL1        0.0276
     97 H          13.5605   -3.2914    0.0000 H       1  UNL1        0.0276
     98 H          13.9216    5.6750    0.0000 H       1  UNL1        0.0563
     99 H          13.2329    6.0762    0.0000 H       1  UNL1        0.0563
    100 H          16.1887   -2.4052    0.0000 H       1  UNL1        0.0301
    101 H          12.8373    5.2211    0.0000 H       1  UNL1        0.0237
    102 H          12.2149    4.6035    0.0000 H       1  UNL1        0.0237
    103 H          12.8325    3.9811    0.0000 H       1  UNL1        0.0237
    104 H          14.3130   -3.7336    0.0000 H       1  UNL1        0.0268
    105 H          15.1113   -3.7367    0.0000 H       1  UNL1        0.0268
    106 H          11.5266    3.1938    0.0000 H       1  UNL1        0.2098
    107 H          16.8216   -1.6566    0.0000 H       1  UNL1        0.0233
    108 H          17.0387   -0.8071    0.0000 H       1  UNL1        0.0233
    109 H          16.1892   -0.5900    0.0000 H       1  UNL1        0.0233
    110 H          15.3307    6.4361    0.0000 H       1  UNL1        0.2099
    111 H          17.1162    4.7385    0.0000 H       1  UNL1        0.2099
    112 H          16.2136   -3.7530    0.0000 H       1  UNL1        0.0233
    113 H          17.0597   -3.5228    0.0000 H       1  UNL1        0.0233
    114 H          16.8295   -2.6768    0.0000 H       1  UNL1        0.0233
    115 H          12.0303    6.0071    0.0000 H       1  UNL1        0.2094
    116 H          12.6002   -3.9362    0.0000 H       1  UNL1        0.1085
    117 H          12.0632   -5.2462    0.0000 H       1  UNL1        0.0683
    118 H          10.6603   -5.4361    0.0000 H       1  UNL1        0.0648
    119 H          10.3312   -3.0062    0.0000 H       1  UNL1        0.0647
    120 H           9.7942   -4.3162    0.0000 H       1  UNL1        0.0647
    121 H          13.4662   -4.8162    0.0000 H       1  UNL1        0.2102
    122 H           8.8546   -3.0185    0.0000 H       1  UNL1        0.0587
    123 H           9.2531   -3.7088    0.0000 H       1  UNL1        0.0587
    124 H          10.6603   -6.4361    0.0000 H       1  UNL1        0.2100
    125 H           8.9282   -4.8162    0.0000 H       1  UNL1        0.2100
    126 H           8.5991   -2.2462    0.0000 H       1  UNL1        0.0937
    127 H           7.1962   -2.4362    0.0000 H       1  UNL1        0.0671
    128 H           6.3301   -1.3162    0.0000 H       1  UNL1        0.0648
    129 H           8.2700    0.1838    0.0000 H       1  UNL1        0.0647
    130 H           6.8671   -0.0062    0.0000 H       1  UNL1        0.0651
    131 H           7.1962   -3.4362    0.0000 H       1  UNL1        0.2101
    132 H           8.3437    0.7662    0.0000 H       1  UNL1        0.0584
    133 H           7.9451    1.4565    0.0000 H       1  UNL1        0.0584
    134 H           6.0010   -2.7462    0.0000 H       1  UNL1        0.2100
    135 H           5.1350   -0.0062    0.0000 H       1  UNL1        0.0938
    136 H           3.7320    0.1838    0.0000 H       1  UNL1        0.0671
    137 H           6.8671    1.9938    0.0000 H       1  UNL1        0.2095
    138 H           3.9650   -0.0062    0.0000 H       1  UNL1        0.0648
    139 H           4.8059   -2.4362    0.0000 H       1  UNL1        0.0621
    140 H           3.4030   -2.2462    0.0000 H       1  UNL1        0.0646
    141 H           3.7320    1.1838    0.0000 H       1  UNL1        0.2101
    142 H           3.6490   -3.1262    0.0000 H       1  UNL1        0.0255
    143 H           4.2690   -3.7462    0.0000 H       1  UNL1        0.0255
    144 H           4.8890   -3.1262    0.0000 H       1  UNL1        0.0255
    145 H           2.0000   -0.4362    0.0000 H       1  UNL1        0.2100
    146 H           2.5369   -2.7462    0.0000 H       1  UNL1        0.2100
@<TRIPOS>BOND
     1    27     1    1
     2     1   106    1
     3    37     2    1
     4     2   110    1
     5    38     3    1
     6     3   111    1
     7     4    44    1
     8     4   115    1
     9     5    48    1
    10    51     5    1
    11     6    48    2
    12     7    51    1
    13     7    54    1
    14    52     8    1
    15     8   121    1
    16    53     9    1
    17     9   124    1
    18    55    10    1
    19    10   125    1
    20    11    56    1
    21    57    11    1
    22    12    57    1
    23    12    60    1
    24    58    13    1
    25    13   131    1
    26    61    14    1
    27    63    14    1
    28    59    15    1
    29    15   134    1
    30    16    62    1
    31    16   137    1
    32    17    63    1
    33    17    66    1
    34    64    18    1
    35    18   141    1
    36    65    19    1
    37    19   145    1
    38    67    20    1
    39    20   146    1
    40    21    22    1
    41    21    24    1
    42    21    26    1
    43    21    35    1
    44    22    23    1
    45    22    32    1
    46    22    69    1
    47    23    25    1
    48    23    31    1
    49    23    39    1
    50    24    29    1
    51    24    33    1
    52    24    41    1
    53    25    27    1
    54    25    28    1
    55    25    70    1
    56    26    27    1
    57    26    71    1
    58    26    72    1
    59    27    73    1
    60    28    37    1
    61    28    44    1
    62    28    46    1
    63    29    30    1
    64    29    40    2
    65    30    34    1
    66    30    42    1
    67    30    74    1
    68    31    38    1
    69    31    75    1
    70    31    76    1
    71    32    40    1
    72    32    77    1
    73    32    78    1
    74    33    36    1
    75    33    79    1
    76    33    80    1
    77    34    36    1
    78    34    43    1
    79    34    48    1
    80    35    81    1
    81    35    82    1
    82    35    83    1
    83    36    84    1
    84    36    85    1
    85    37    38    1
    86    37    86    1
    87    38    87    1
    88    39    88    1
    89    39    89    1
    90    39    90    1
    91    40    91    1
    92    41    92    1
    93    41    93    1
    94    41    94    1
    95    42    45    1
    96    42    49    1
    97    42    95    1
    98    43    47    1
    99    43    96    1
   100    43    97    1
   101    44    98    1
   102    44    99    1
   103    45    47    1
   104    45    50    1
   105    45   100    1
   106    46   101    1
   107    46   102    1
   108    46   103    1
   109    47   104    1
   110    47   105    1
   111    49   107    1
   112    49   108    1
   113    49   109    1
   114    50   112    1
   115    50   113    1
   116    50   114    1
   117    51    52    1
   118    51   116    1
   119    52    53    1
   120    52   117    1
   121    53    55    1
   122    53   118    1
   123    54    55    1
   124    54    56    1
   125    54   119    1
   126    55   120    1
   127    56   122    1
   128    56   123    1
   129    57    58    1
   130    57   126    1
   131    58    59    1
   132    58   127    1
   133    59    61    1
   134    59   128    1
   135    60    61    1
   136    60    62    1
   137    60   129    1
   138    61   130    1
   139    62   132    1
   140    62   133    1
   141    63    64    1
   142    63   135    1
   143    64    65    1
   144    64   136    1
   145    65    67    1
   146    65   138    1
   147    66    67    1
   148    66    68    1
   149    66   139    1
   150    67   140    1
   151    68   142    1
   152    68   143    1
   153    68   144    1
