@<TRIPOS>MOLECULE
IMPHY004378
 40 40 0 0 0
SMALL
GASTEIGER

@<TRIPOS>ATOM
      1 O           2.8660    0.2500    0.0000 O.2     1  UNL1       -0.2708
      2 O           2.8660   -5.7500    0.0000 O.3     1  UNL1       -0.5068
      3 N           4.5981    0.2500    0.0000 N.am    1  UNL1       -0.3118
      4 N           6.3301    4.2500    0.0000 N.pl3   1  UNL1       -0.1138
      5 N           7.1962    5.7500    0.0000 N.pl3   1  UNL1       -0.2893
      6 N           8.0622    4.2500    0.0000 N.pl3   1  UNL1       -0.2893
      7 C           5.4641    1.7500    0.0000 C.3     1  UNL1       -0.0344
      8 C           5.4641    2.7500    0.0000 C.3     1  UNL1       -0.0172
      9 C           4.5981    1.2500    0.0000 C.3     1  UNL1        0.0120
     10 C           6.3301    3.2500    0.0000 C.3     1  UNL1        0.1047
     11 C           3.7320   -0.2500    0.0000 C.2     1  UNL1        0.2369
     12 C           3.7320   -1.2500    0.0000 C.2     1  UNL1        0.0007
     13 C           2.8660   -2.7500    0.0000 C.ar    1  UNL1       -0.0247
     14 C           2.8660   -1.7500    0.0000 C.2     1  UNL1       -0.0497
     15 C           7.1962    4.7500    0.0000 C.cat   1  UNL1        0.3765
     16 C           2.0000   -3.2500    0.0000 C.ar    1  UNL1       -0.0511
     17 C           3.7320   -3.2500    0.0000 C.ar    1  UNL1       -0.0511
     18 C           2.0000   -4.2500    0.0000 C.ar    1  UNL1       -0.0196
     19 C           3.7320   -4.2500    0.0000 C.ar    1  UNL1       -0.0196
     20 C           2.8660   -4.7500    0.0000 C.ar    1  UNL1        0.1169
     21 H           5.6762    1.1674    0.0000 H       1  UNL1        0.0281
     22 H           6.0747    1.8577    0.0000 H       1  UNL1        0.0281
     23 H           5.2520    3.3326    0.0000 H       1  UNL1        0.0297
     24 H           4.8535    2.6423    0.0000 H       1  UNL1        0.0297
     25 H           4.3860    1.8326    0.0000 H       1  UNL1        0.0462
     26 H           3.9875    1.1423    0.0000 H       1  UNL1        0.0462
     27 H           6.5422    2.6674    0.0000 H       1  UNL1        0.0693
     28 H           6.9407    3.3577    0.0000 H       1  UNL1        0.0693
     29 H           5.1350   -0.0600    0.0000 H       1  UNL1        0.1490
     30 H           4.2690   -1.5600    0.0000 H       1  UNL1        0.0669
     31 H           2.3291   -1.4400    0.0000 H       1  UNL1        0.0625
     32 H           1.4631   -2.9400    0.0000 H       1  UNL1        0.0625
     33 H           4.2690   -2.9400    0.0000 H       1  UNL1        0.0625
     34 H           1.4631   -4.5600    0.0000 H       1  UNL1        0.0654
     35 H           4.2690   -4.5600    0.0000 H       1  UNL1        0.0654
     36 H           7.7331    6.0600    0.0000 H       1  UNL1        0.2546
     37 H           6.6592    6.0600    0.0000 H       1  UNL1        0.2546
     38 H           8.5991    4.5600    0.0000 H       1  UNL1        0.2546
     39 H           8.0622    3.6300    0.0000 H       1  UNL1        0.2546
     40 H           2.3291   -6.0600    0.0000 H       1  UNL1        0.2921
@<TRIPOS>BOND
     1     1    11    2
     2     2    20    1
     3     2    40    1
     4     3     9    1
     5     3    11   am
     6     3    29    1
     7     4    10    1
     8     4    15    2
     9     5    15    1
    10     5    36    1
    11     5    37    1
    12     6    15    1
    13     6    38    1
    14     6    39    1
    15     7     8    1
    16     7     9    1
    17     7    21    1
    18     7    22    1
    19     8    10    1
    20     8    23    1
    21     8    24    1
    22     9    25    1
    23     9    26    1
    24    10    27    1
    25    10    28    1
    26    11    12    1
    27    12    14    2
    28    12    30    1
    29    13    14    1
    30    13    16   ar
    31    13    17   ar
    32    14    31    1
    33    16    18   ar
    34    16    32    1
    35    17    19   ar
    36    17    33    1
    37    18    20   ar
    38    18    34    1
    39    19    20   ar
    40    19    35    1
