@<TRIPOS>MOLECULE
IMPHY001760
 43 47 0 0 0
SMALL
GASTEIGER

@<TRIPOS>ATOM
      1 O           4.6571   -3.7408    0.0000 O.3     1  UNL1       -0.4518
      2 O           3.2118   -4.5902    0.0000 O.3     1  UNL1       -0.4526
      3 O           2.0116    3.1265    0.0000 O.3     1  UNL1       -0.4914
      4 O           3.8149    4.1863    0.0000 O.3     1  UNL1       -0.4914
      5 N           4.7340   -0.5104    0.0000 N.ar    1  UNL1       -0.1961
      6 C           5.6440   -0.0036    0.0000 C.3     1  UNL1        0.1550
      7 C           3.8680   -0.0104    0.0000 C.ar    1  UNL1        0.2159
      8 C           5.6521    1.0380    0.0000 C.3     1  UNL1        0.0330
      9 C           3.8520    1.0311    0.0000 C.ar    1  UNL1        0.0533
     10 C           4.7500    1.5588    0.0000 C.ar    1  UNL1       -0.0243
     11 C           3.8680   -2.0104    0.0000 C.ar    1  UNL1        0.0911
     12 C           4.7340   -1.5104    0.0000 C.ar    1  UNL1        0.1831
     13 C           3.0020   -1.5104    0.0000 C.ar    1  UNL1       -0.0022
     14 C           3.0020   -0.5104    0.0000 C.ar    1  UNL1        0.0183
     15 C           2.9000    1.5517    0.0000 C.ar    1  UNL1       -0.0026
     16 C           4.7584    2.6438    0.0000 C.ar    1  UNL1       -0.0121
     17 C           3.8841   -3.0519    0.0000 C.ar    1  UNL1        0.1795
     18 C           2.0920   -2.0173    0.0000 C.ar    1  UNL1       -0.0499
     19 C           2.8833    2.6366    0.0000 C.ar    1  UNL1        0.1623
     20 C           3.8187    3.1863    0.0000 C.ar    1  UNL1        0.1618
     21 C           2.9860   -3.5797    0.0000 C.ar    1  UNL1        0.1671
     22 C           2.0840   -3.0589    0.0000 C.ar    1  UNL1       -0.0155
     23 C           4.2424   -4.6896    0.0000 C.3     1  UNL1        0.2333
     24 C           2.0000    4.1265    0.0000 C.3     1  UNL1        0.0790
     25 C           4.6790    4.6896    0.0000 C.3     1  UNL1        0.0790
     26 H           5.8486   -0.5889    0.0000 H       1  UNL1        0.1034
     27 H           6.2557    0.0978    0.0000 H       1  UNL1        0.1034
     28 H           6.2621    0.9272    0.0000 H       1  UNL1        0.0375
     29 H           5.8656    1.6201    0.0000 H       1  UNL1        0.0375
     30 H           5.2710   -1.8204    0.0000 H       1  UNL1        0.1384
     31 H           2.4651   -0.2004    0.0000 H       1  UNL1        0.0690
     32 H           2.3692    1.2314    0.0000 H       1  UNL1        0.0663
     33 H           5.2965    2.9517    0.0000 H       1  UNL1        0.0658
     34 H           1.5587   -1.7011    0.0000 H       1  UNL1        0.0625
     35 H           1.5458   -3.3668    0.0000 H       1  UNL1        0.0655
     36 H           4.1184   -5.2971    0.0000 H       1  UNL1        0.1166
     37 H           4.8335   -4.8768    0.0000 H       1  UNL1        0.1166
     38 H           2.6200    4.1336    0.0000 H       1  UNL1        0.0660
     39 H           1.9928    4.7464    0.0000 H       1  UNL1        0.0660
     40 H           1.3800    4.1193    0.0000 H       1  UNL1        0.0660
     41 H           4.9910    4.1539    0.0000 H       1  UNL1        0.0660
     42 H           5.2147    5.0017    0.0000 H       1  UNL1        0.0660
     43 H           4.3669    5.2254    0.0000 H       1  UNL1        0.0660
@<TRIPOS>UNITY_ATOM_ATTR
5 1
charge 1
@<TRIPOS>BOND
     1     1    17    1
     2     1    23    1
     3     2    21    1
     4     2    23    1
     5     3    19    1
     6     3    24    1
     7     4    20    1
     8     4    25    1
     9     5     6    1
    10     5     7   ar
    11     5    12   ar
    12     6     8    1
    13     6    26    1
    14     6    27    1
    15     7     9    1
    16     7    14   ar
    17     8    10    1
    18     8    28    1
    19     8    29    1
    20     9    10   ar
    21     9    15   ar
    22    10    16   ar
    23    11    12   ar
    24    11    13   ar
    25    11    17   ar
    26    12    30    1
    27    13    14   ar
    28    13    18   ar
    29    14    31    1
    30    15    19   ar
    31    15    32    1
    32    16    20   ar
    33    16    33    1
    34    17    21   ar
    35    18    22   ar
    36    18    34    1
    37    19    20   ar
    38    21    22   ar
    39    22    35    1
    40    23    36    1
    41    23    37    1
    42    24    38    1
    43    24    39    1
    44    24    40    1
    45    25    41    1
    46    25    42    1
    47    25    43    1
