@<TRIPOS>MOLECULE
IMPHY007024
 52 54 0 0 0
SMALL
GASTEIGER

@<TRIPOS>ATOM
      1 O           6.2079    2.4496    0.0000 O.3     1  UNL1       -0.3648
      2 O           6.8671   -0.8984    0.0000 O.3     1  UNL1       -0.3426
      3 O           9.7438    3.1523    0.0000 O.3     1  UNL1       -0.3913
      4 O           5.1350   -0.8984    0.0000 O.3     1  UNL1       -0.3405
      5 O           6.8671   -2.8984    0.0000 O.3     1  UNL1       -0.3841
      6 O           5.1350   -3.8984    0.0000 O.3     1  UNL1       -0.3864
      7 O           3.4030   -2.8984    0.0000 O.3     1  UNL1       -0.3865
      8 O           2.5369   -1.3984    0.0000 O.3     1  UNL1       -0.3924
      9 C           7.6873    2.2031    0.0000 C.3     1  UNL1        0.0161
     10 C           7.8610    1.2183    0.0000 C.3     1  UNL1        0.0959
     11 C           6.7815    3.2687    0.0000 C.3     1  UNL1        0.0700
     12 C           6.8671    0.1016    0.0000 C.3     1  UNL1        0.0909
     13 C           6.1600    0.8087    0.0000 C.3     1  UNL1       -0.0160
     14 C           9.1702    2.3331    0.0000 C.3     1  UNL1        0.0634
     15 C           9.3439    1.3483    0.0000 C.3     1  UNL1        0.0049
     16 C           8.0346    0.2335    0.0000 C.3     1  UNL1       -0.0333
     17 C           7.1235    4.2084    0.0000 C.3     1  UNL1       -0.0357
     18 C           6.1387    4.0348    0.0000 C.3     1  UNL1       -0.0357
     19 C           6.0010   -1.3984    0.0000 C.3     1  UNL1        0.1883
     20 C           6.0010   -2.3984    0.0000 C.3     1  UNL1        0.1341
     21 C           5.1350   -2.8984    0.0000 C.3     1  UNL1        0.1141
     22 C           4.2690   -1.3984    0.0000 C.3     1  UNL1        0.1130
     23 C           4.2690   -2.3984    0.0000 C.3     1  UNL1        0.1119
     24 C           3.4030   -0.8984    0.0000 C.3     1  UNL1        0.0730
     25 H           7.9366    1.6354    0.0000 H       1  UNL1        0.0354
     26 H           7.4465   -0.1189    0.0000 H       1  UNL1        0.0626
     27 H           5.7350    1.2602    0.0000 H       1  UNL1        0.0295
     28 H           5.7150    0.3770    0.0000 H       1  UNL1        0.0295
     29 H           9.7755    2.1989    0.0000 H       1  UNL1        0.0598
     30 H           9.4159    0.7325    0.0000 H       1  UNL1        0.0319
     31 H           9.9573    1.4382    0.0000 H       1  UNL1        0.0319
     32 H           7.4240    0.1258    0.0000 H       1  UNL1        0.0258
     33 H           8.1423   -0.3771    0.0000 H       1  UNL1        0.0258
     34 H           8.6452    0.3411    0.0000 H       1  UNL1        0.0258
     35 H           6.6136    4.4333    0.0000 H       1  UNL1        0.0257
     36 H           5.7402    4.5097    0.0000 H       1  UNL1        0.0257
     37 H           5.6638    3.6362    0.0000 H       1  UNL1        0.0257
     38 H           7.7061    3.9964    0.0000 H       1  UNL1        0.0257
     39 H           7.3356    4.7910    0.0000 H       1  UNL1        0.0257
     40 H           6.5409    4.4205    0.0000 H       1  UNL1        0.0257
     41 H           6.0010   -0.7784    0.0000 H       1  UNL1        0.0938
     42 H          10.3614    3.0982    0.0000 H       1  UNL1        0.2098
     43 H           6.5380   -2.0884    0.0000 H       1  UNL1        0.0671
     44 H           5.6720   -3.2084    0.0000 H       1  UNL1        0.0648
     45 H           4.2690   -0.7784    0.0000 H       1  UNL1        0.0647
     46 H           3.7320   -2.0884    0.0000 H       1  UNL1        0.0647
     47 H           3.8015   -0.4235    0.0000 H       1  UNL1        0.0584
     48 H           3.0044   -0.4235    0.0000 H       1  UNL1        0.0584
     49 H           6.8671   -3.5184    0.0000 H       1  UNL1        0.2101
     50 H           4.5981   -4.2084    0.0000 H       1  UNL1        0.2100
     51 H           3.4030   -3.5184    0.0000 H       1  UNL1        0.2100
     52 H           2.0000   -1.0884    0.0000 H       1  UNL1        0.2095
@<TRIPOS>BOND
     1     1    10    1
     2     1    11    1
     3     2    12    1
     4     2    19    1
     5     3    14    1
     6     3    42    1
     7     4    19    1
     8     4    22    1
     9     5    20    1
    10     5    49    1
    11     6    21    1
    12     6    50    1
    13     7    23    1
    14     7    51    1
    15     8    24    1
    16     8    52    1
    17     9    11    1
    18     9    13    1
    19     9    14    1
    20     9    25    1
    21    10    12    1
    22    10    15    1
    23    10    16    1
    24    11    17    1
    25    11    18    1
    26    12    13    1
    27    12    26    1
    28    13    27    1
    29    13    28    1
    30    14    15    1
    31    14    29    1
    32    15    30    1
    33    15    31    1
    34    16    32    1
    35    16    33    1
    36    16    34    1
    37    17    38    1
    38    17    39    1
    39    17    40    1
    40    18    35    1
    41    18    36    1
    42    18    37    1
    43    19    20    1
    44    19    41    1
    45    20    21    1
    46    20    43    1
    47    21    23    1
    48    21    44    1
    49    22    23    1
    50    22    24    1
    51    22    45    1
    52    23    46    1
    53    24    47    1
    54    24    48    1
