@<TRIPOS>MOLECULE
IMPHY017476
 18 18 0 0 0
SMALL
GASTEIGER

@<TRIPOS>ATOM
      1 O           3.7320   -1.7500    0.0000 O.2     1  UNL1       -0.2752
      2 N           2.8660   -0.2500    0.0000 N.am    1  UNL1       -0.2547
      3 C           2.8660    1.7500    0.0000 C.3     1  UNL1       -0.0136
      4 C           2.0000    0.2500    0.0000 C.2     1  UNL1        0.0003
      5 C           3.7320    0.2500    0.0000 C.2     1  UNL1        0.0003
      6 C           2.0000    1.2500    0.0000 C.2     1  UNL1       -0.0658
      7 C           3.7320    1.2500    0.0000 C.2     1  UNL1       -0.0658
      8 C           2.8660   -1.2500    0.0000 C.2     1  UNL1        0.2201
      9 C           2.0000   -1.7500    0.0000 C.3     1  UNL1        0.0130
     10 H           3.2646    2.2250    0.0000 H       1  UNL1        0.0351
     11 H           2.4675    2.2250    0.0000 H       1  UNL1        0.0351
     12 H           1.4631   -0.0600    0.0000 H       1  UNL1        0.0785
     13 H           4.2690   -0.0600    0.0000 H       1  UNL1        0.0785
     14 H           1.4631    1.5600    0.0000 H       1  UNL1        0.0588
     15 H           4.2690    1.5600    0.0000 H       1  UNL1        0.0588
     16 H           1.6900   -1.2131    0.0000 H       1  UNL1        0.0323
     17 H           1.4631   -2.0600    0.0000 H       1  UNL1        0.0323
     18 H           2.3100   -2.2869    0.0000 H       1  UNL1        0.0323
@<TRIPOS>BOND
     1     1     8    2
     2     2     4    1
     3     2     5    1
     4     2     8   am
     5     3     6    1
     6     3     7    1
     7     3    10    1
     8     3    11    1
     9     4     6    2
    10     4    12    1
    11     5     7    2
    12     5    13    1
    13     6    14    1
    14     7    15    1
    15     8     9    1
    16     9    16    1
    17     9    17    1
    18     9    18    1
