@<TRIPOS>MOLECULE
IMPHY013687
 52 53 0 0 0
SMALL
GASTEIGER

@<TRIPOS>ATOM
      1 O          16.8026    0.3047    0.0000 O.3     1  UNL1       -0.4526
      2 O          16.8026   -1.3047    0.0000 O.3     1  UNL1       -0.4526
      3 O           5.4641   -1.0000    0.0000 O.2     1  UNL1       -0.2708
      4 N           4.5981    0.5000    0.0000 N.am    1  UNL1       -0.3116
      5 C           2.8660    0.5000    0.0000 C.3     1  UNL1       -0.0311
      6 C           3.7320   -0.0000    0.0000 C.3     1  UNL1        0.0142
      7 C          10.6603    0.0000    0.0000 C.3     1  UNL1       -0.0462
      8 C           2.0000   -0.0000    0.0000 C.3     1  UNL1       -0.0612
      9 C           2.8660    1.5000    0.0000 C.3     1  UNL1       -0.0612
     10 C          11.5263    0.5000    0.0000 C.3     1  UNL1       -0.0342
     11 C           9.7942    0.5000    0.0000 C.3     1  UNL1       -0.0342
     12 C          12.3923    0.0000    0.0000 C.2     1  UNL1       -0.0834
     13 C          14.1244    0.0000    0.0000 C.ar    1  UNL1       -0.0216
     14 C          15.8564    0.0000    0.0000 C.ar    1  UNL1        0.1668
     15 C          13.2583    0.5000    0.0000 C.2     1  UNL1       -0.0584
     16 C          15.8564   -1.0000    0.0000 C.ar    1  UNL1        0.1663
     17 C          14.9904    0.5000    0.0000 C.ar    1  UNL1       -0.0090
     18 C           8.9282    0.0000    0.0000 C.2     1  UNL1       -0.0840
     19 C          14.1244   -1.0000    0.0000 C.ar    1  UNL1       -0.0509
     20 C          14.9904   -1.5000    0.0000 C.ar    1  UNL1       -0.0156
     21 C           5.4641   -0.0000    0.0000 C.2     1  UNL1        0.2369
     22 C          17.3862   -0.5000    0.0000 C.3     1  UNL1        0.2332
     23 C           8.0622    0.5000    0.0000 C.2     1  UNL1       -0.0655
     24 C           6.3301    0.5000    0.0000 C.2     1  UNL1        0.0001
     25 C           7.1962   -0.0000    0.0000 C.2     1  UNL1       -0.0571
     26 H           2.8660   -0.1200    0.0000 H       1  UNL1        0.0311
     27 H           3.3335   -0.4749    0.0000 H       1  UNL1        0.0465
     28 H           4.1306   -0.4749    0.0000 H       1  UNL1        0.0465
     29 H          10.2617   -0.4749    0.0000 H       1  UNL1        0.0271
     30 H          11.0588   -0.4749    0.0000 H       1  UNL1        0.0271
     31 H           1.6900    0.5369    0.0000 H       1  UNL1        0.0233
     32 H           1.4631   -0.3100    0.0000 H       1  UNL1        0.0233
     33 H           2.3100   -0.5369    0.0000 H       1  UNL1        0.0233
     34 H           3.4860    1.5000    0.0000 H       1  UNL1        0.0233
     35 H           2.8660    2.1200    0.0000 H       1  UNL1        0.0233
     36 H           2.2460    1.5000    0.0000 H       1  UNL1        0.0233
     37 H          11.9248    0.9749    0.0000 H       1  UNL1        0.0308
     38 H          11.1278    0.9749    0.0000 H       1  UNL1        0.0308
     39 H          10.1928    0.9749    0.0000 H       1  UNL1        0.0308
     40 H           9.3957    0.9749    0.0000 H       1  UNL1        0.0308
     41 H           4.5981    1.1200    0.0000 H       1  UNL1        0.1490
     42 H          12.3923   -0.6200    0.0000 H       1  UNL1        0.0572
     43 H          13.2583    1.1200    0.0000 H       1  UNL1        0.0620
     44 H          14.9904    1.1200    0.0000 H       1  UNL1        0.0661
     45 H           8.9282   -0.6200    0.0000 H       1  UNL1        0.0572
     46 H          13.5874   -1.3100    0.0000 H       1  UNL1        0.0625
     47 H          14.9904   -2.1200    0.0000 H       1  UNL1        0.0655
     48 H          17.8471   -0.9147    0.0000 H       1  UNL1        0.1166
     49 H          17.8471   -0.0853    0.0000 H       1  UNL1        0.1166
     50 H           8.0622    1.1200    0.0000 H       1  UNL1        0.0614
     51 H           6.3301    1.1200    0.0000 H       1  UNL1        0.0669
     52 H           7.1962   -0.6200    0.0000 H       1  UNL1        0.0619
@<TRIPOS>BOND
     1     1    14    1
     2     1    22    1
     3     2    16    1
     4     2    22    1
     5     3    21    2
     6     4     6    1
     7     4    21   am
     8     4    41    1
     9     5     6    1
    10     5     8    1
    11     5     9    1
    12     5    26    1
    13     6    27    1
    14     6    28    1
    15     7    10    1
    16     7    11    1
    17     7    29    1
    18     7    30    1
    19     8    31    1
    20     8    32    1
    21     8    33    1
    22     9    34    1
    23     9    35    1
    24     9    36    1
    25    10    12    1
    26    10    37    1
    27    10    38    1
    28    11    18    1
    29    11    39    1
    30    11    40    1
    31    12    15    2
    32    12    42    1
    33    13    15    1
    34    13    17   ar
    35    13    19   ar
    36    14    16   ar
    37    14    17   ar
    38    15    43    1
    39    16    20   ar
    40    17    44    1
    41    18    23    2
    42    18    45    1
    43    19    20   ar
    44    19    46    1
    45    20    47    1
    46    21    24    1
    47    22    48    1
    48    22    49    1
    49    23    25    1
    50    23    50    1
    51    24    25    2
    52    24    51    1
    53    25    52    1
