@<TRIPOS>MOLECULE
IMPHY014622
 53 56 0 0 0
SMALL
GASTEIGER

@<TRIPOS>ATOM
      1 O           2.5373   -1.0051    0.0000 O.3     1  UNL1       -0.3907
      2 O           4.3604   -2.7739    0.0000 O.3     1  UNL1       -0.4802
      3 O           2.8528   -1.9212    0.0000 O.2     1  UNL1       -0.2503
      4 C           7.0566    0.5698    0.0000 C.3     1  UNL1       -0.0217
      5 C           6.1880    1.0655    0.0000 C.3     1  UNL1       -0.0294
      6 C           5.2806    0.5541    0.0000 C.3     1  UNL1       -0.0247
      7 C           5.2777   -0.4875    0.0000 C.3     1  UNL1       -0.0174
      8 C           7.0778   -0.4716    0.0000 C.3     1  UNL1       -0.0465
      9 C           7.0320    1.7511    0.0000 C.3     1  UNL1       -0.0403
     10 C           6.1824   -1.0039    0.0000 C.3     1  UNL1       -0.0481
     11 C           7.7081    2.7202    0.0000 C.3     1  UNL1       -0.0196
     12 C           6.0341    2.0535    0.0000 C.3     1  UNL1       -0.0487
     13 C           7.9856    0.9398    0.0000 C.3     1  UNL1       -0.0258
     14 C           4.3451   -1.0419    0.0000 C.3     1  UNL1        0.0938
     15 C           4.3509    1.1135    0.0000 C.3     1  UNL1       -0.0447
     16 C           6.7106    2.7900    0.0000 C.3     1  UNL1       -0.0462
     17 C           8.2756    1.8968    0.0000 C.2     1  UNL1       -0.0730
     18 C           4.9411    1.4947    0.0000 C.3     1  UNL1       -0.0590
     19 C           3.4028   -0.5041    0.0000 C.3     1  UNL1        0.0710
     20 C           3.4057    0.5809    0.0000 C.3     1  UNL1       -0.0253
     21 C           4.8527   -1.9035    0.0000 C.3     1  UNL1       -0.0467
     22 C           3.8528   -1.9123    0.0000 C.2     1  UNL1        0.3135
     23 C           9.2636    2.0508    0.0000 C.2     1  UNL1       -0.0992
     24 H           5.4498    1.4868    0.0000 H       1  UNL1        0.0312
     25 H           5.2853   -1.3375    0.0000 H       1  UNL1        0.0317
     26 H           7.2987   -1.0509    0.0000 H       1  UNL1        0.0271
     27 H           7.6864   -0.3531    0.0000 H       1  UNL1        0.0271
     28 H           6.6578    2.2455    0.0000 H       1  UNL1        0.0276
     29 H           6.4464    1.5477    0.0000 H       1  UNL1        0.0276
     30 H           5.7875   -1.4818    0.0000 H       1  UNL1        0.0269
     31 H           6.5857   -1.4748    0.0000 H       1  UNL1        0.0269
     32 H           7.9546    3.5337    0.0000 H       1  UNL1        0.0346
     33 H           5.6823    2.5640    0.0000 H       1  UNL1        0.0268
     34 H           5.4581    1.8242    0.0000 H       1  UNL1        0.0268
     35 H           8.0810    0.3272    0.0000 H       1  UNL1        0.0315
     36 H           8.6041    0.8965    0.0000 H       1  UNL1        0.0315
     37 H           4.7568    1.5822    0.0000 H       1  UNL1        0.0271
     38 H           3.9586    1.5936    0.0000 H       1  UNL1        0.0271
     39 H           6.8904    3.3833    0.0000 H       1  UNL1        0.0271
     40 H           6.1721    3.0973    0.0000 H       1  UNL1        0.0271
     41 H           5.5243    1.7052    0.0000 H       1  UNL1        0.0235
     42 H           4.7306    2.0779    0.0000 H       1  UNL1        0.0235
     43 H           4.3579    1.2842    0.0000 H       1  UNL1        0.0235
     44 H           3.4046   -1.1241    0.0000 H       1  UNL1        0.0604
     45 H           3.1982    1.1651    0.0000 H       1  UNL1        0.0291
     46 H           2.7946    0.4764    0.0000 H       1  UNL1        0.0291
     47 H           4.3185   -2.2182    0.0000 H       1  UNL1        0.0241
     48 H           5.1674   -2.4377    0.0000 H       1  UNL1        0.0241
     49 H           5.3869   -1.5888    0.0000 H       1  UNL1        0.0241
     50 H           9.6526    1.5680    0.0000 H       1  UNL1        0.0534
     51 H           9.4873    2.6290    0.0000 H       1  UNL1        0.0534
     52 H           2.0000   -0.6957    0.0000 H       1  UNL1        0.2098
     53 H           4.0551   -3.3136    0.0000 H       1  UNL1        0.2951
@<TRIPOS>BOND
     1    19     1    1
     2     1    52    1
     3     2    22    1
     4     2    53    1
     5     3    22    2
     6     4     5    1
     7     4     8    1
     8     4     9    1
     9     4    13    1
    10     5     6    1
    11     5    12    1
    12     5    24    1
    13     6     7    1
    14     6    15    1
    15     6    18    1
    16     7    10    1
    17     7    14    1
    18     7    25    1
    19     8    10    1
    20     8    26    1
    21     8    27    1
    22     9    11    1
    23     9    28    1
    24     9    29    1
    25    10    30    1
    26    10    31    1
    27    11    16    1
    28    11    17    1
    29    11    32    1
    30    12    16    1
    31    12    33    1
    32    12    34    1
    33    13    17    1
    34    13    35    1
    35    13    36    1
    36    14    19    1
    37    14    21    1
    38    14    22    1
    39    15    20    1
    40    15    37    1
    41    15    38    1
    42    16    39    1
    43    16    40    1
    44    17    23    2
    45    18    41    1
    46    18    42    1
    47    18    43    1
    48    19    20    1
    49    19    44    1
    50    20    45    1
    51    20    46    1
    52    21    47    1
    53    21    48    1
    54    21    49    1
    55    23    50    1
    56    23    51    1
