@<TRIPOS>MOLECULE
IMPHY008072
 50 54 0 0 0
SMALL
GASTEIGER

@<TRIPOS>ATOM
      1 O           5.8776    0.8543    0.0000 O.3     1  UNL1       -0.4570
      2 O           3.9066    1.2700    0.0000 O.3     1  UNL1       -0.3868
      3 O           2.1162   -1.4578    0.0000 O.3     1  UNL1       -0.3842
      4 O           8.2626   -2.1068    0.0000 O.3     1  UNL1       -0.3916
      5 O           8.2994    1.4108    0.0000 O.2     1  UNL1       -0.2502
      6 O           4.8007    2.0827    0.0000 O.3     1  UNL1       -0.4804
      7 O           6.5267    1.9372    0.0000 O.2     1  UNL1       -0.2507
      8 C           4.8095   -0.0340    0.0000 C.3     1  UNL1        0.0232
      9 C           6.0235   -0.8796    0.0000 C.3     1  UNL1        0.1238
     10 C           5.1114   -0.9012    0.0000 C.3     1  UNL1        0.0087
     11 C           6.2865   -0.0056    0.0000 C.3     1  UNL1        0.0284
     12 C           5.5377    0.5152    0.0000 C.3     1  UNL1        0.0724
     13 C           7.2038    0.2104    0.0000 C.3     1  UNL1        0.0745
     14 C           4.1135   -0.8664    0.0000 C.3     1  UNL1       -0.0106
     15 C           3.9426    0.2707    0.0000 C.3     1  UNL1        0.0855
     16 C           3.0606   -1.1290    0.0000 C.3     1  UNL1        0.0898
     17 C           4.6212   -1.6777    0.0000 C.3     1  UNL1       -0.0430
     18 C           6.6612   -1.5942    0.0000 C.3     1  UNL1        0.0139
     19 C           3.7088   -1.7790    0.0000 C.3     1  UNL1       -0.0196
     20 C           7.8489   -0.4758    0.0000 C.3     1  UNL1       -0.0108
     21 C           3.1650   -0.2164    0.0000 C.2     1  UNL1       -0.0168
     22 C           7.5774   -1.3784    0.0000 C.3     1  UNL1        0.0599
     23 C           7.4686    0.8543    0.0000 C.2     1  UNL1        0.3141
     24 C           5.6217    1.5117    0.0000 C.2     1  UNL1        0.3089
     25 C           8.1872    0.3916    0.0000 C.3     1  UNL1       -0.0489
     26 C           2.3614    0.3788    0.0000 C.2     1  UNL1       -0.0943
     27 H           5.4171   -1.4406    0.0000 H       1  UNL1        0.0346
     28 H           6.4025    0.6034    0.0000 H       1  UNL1        0.0358
     29 H           4.9949    0.8148    0.0000 H       1  UNL1        0.0424
     30 H           4.0706   -1.4849    0.0000 H       1  UNL1        0.0303
     31 H           4.6886   -1.0980    0.0000 H       1  UNL1        0.0303
     32 H           3.3949    0.5611    0.0000 H       1  UNL1        0.0647
     33 H           4.5506   -2.2937    0.0000 H       1  UNL1        0.0270
     34 H           5.2060   -1.8836    0.0000 H       1  UNL1        0.0270
     35 H           6.1369   -1.9250    0.0000 H       1  UNL1        0.0329
     36 H           6.9010   -2.1659    0.0000 H       1  UNL1        0.0329
     37 H           3.1834   -2.1081    0.0000 H       1  UNL1        0.0296
     38 H           3.9127   -2.3645    0.0000 H       1  UNL1        0.0296
     39 H           8.4025   -0.7548    0.0000 H       1  UNL1        0.0301
     40 H           8.2199    0.0210    0.0000 H       1  UNL1        0.0301
     41 H           8.1809   -1.2363    0.0000 H       1  UNL1        0.0595
     42 H           8.2995   -0.2181    0.0000 H       1  UNL1        0.0240
     43 H           8.7969    0.5039    0.0000 H       1  UNL1        0.0240
     44 H           8.0749    1.0013    0.0000 H       1  UNL1        0.0240
     45 H           3.3589    1.5605    0.0000 H       1  UNL1        0.2102
     46 H           2.0000   -2.0668    0.0000 H       1  UNL1        0.2106
     47 H           2.4318    0.9947    0.0000 H       1  UNL1        0.0536
     48 H           1.7927    0.1318    0.0000 H       1  UNL1        0.0536
     49 H           8.0839   -2.7005    0.0000 H       1  UNL1        0.2098
     50 H           4.8528    2.7005    0.0000 H       1  UNL1        0.2951
@<TRIPOS>BOND
     1     1     9    1
     2     1    23    1
     3     2    15    1
     4     2    45    1
     5     3    16    1
     6     3    46    1
     7     4    22    1
     8     4    49    1
     9     5    23    2
    10     6    24    1
    11     6    50    1
    12     7    24    2
    13     8    10    1
    14     8    12    1
    15     8    14    1
    16     8    15    1
    17     9    10    1
    18     9    11    1
    19     9    18    1
    20    10    17    1
    21    10    27    1
    22    11    12    1
    23    11    13    1
    24    11    28    1
    25    12    24    1
    26    12    29    1
    27    13    20    1
    28    13    23    1
    29    13    25    1
    30    14    16    1
    31    14    30    1
    32    14    31    1
    33    15    21    1
    34    15    32    1
    35    16    19    1
    36    16    21    1
    37    17    19    1
    38    17    33    1
    39    17    34    1
    40    18    22    1
    41    18    35    1
    42    18    36    1
    43    19    37    1
    44    19    38    1
    45    20    22    1
    46    20    39    1
    47    20    40    1
    48    21    26    2
    49    22    41    1
    50    25    42    1
    51    25    43    1
    52    25    44    1
    53    26    47    1
    54    26    48    1
