@<TRIPOS>MOLECULE
IMPHY012084
 20 19 0 0 0
SMALL
GASTEIGER

@<TRIPOS>ATOM
      1 O           4.5981    0.7500    0.0000 O.3     1  UNL1       -0.4618
      2 O           5.4641   -0.7500    0.0000 O.2     1  UNL1       -0.2512
      3 C           3.7320    0.2500    0.0000 C.3     1  UNL1        0.1000
      4 C           2.8660    0.7500    0.0000 C.3     1  UNL1       -0.0188
      5 C           3.7320   -0.7500    0.0000 C.3     1  UNL1       -0.0277
      6 C           2.0000    0.2500    0.0000 C.3     1  UNL1       -0.0619
      7 C           5.4641    0.2500    0.0000 C.2     1  UNL1        0.3042
      8 C           6.3301    0.7500    0.0000 C.3     1  UNL1        0.0332
      9 H           3.7320    0.8700    0.0000 H       1  UNL1        0.0731
     10 H           3.2646    1.2250    0.0000 H       1  UNL1        0.0298
     11 H           2.4675    1.2250    0.0000 H       1  UNL1        0.0298
     12 H           3.1120   -0.7500    0.0000 H       1  UNL1        0.0265
     13 H           3.7320   -1.3700    0.0000 H       1  UNL1        0.0265
     14 H           4.3520   -0.7500    0.0000 H       1  UNL1        0.0265
     15 H           1.6900    0.7869    0.0000 H       1  UNL1        0.0231
     16 H           1.4631   -0.0600    0.0000 H       1  UNL1        0.0231
     17 H           2.3100   -0.2869    0.0000 H       1  UNL1        0.0231
     18 H           6.6401    0.2131    0.0000 H       1  UNL1        0.0342
     19 H           6.8671    1.0600    0.0000 H       1  UNL1        0.0342
     20 H           6.0201    1.2869    0.0000 H       1  UNL1        0.0342
@<TRIPOS>BOND
     1     1     3    1
     2     1     7    1
     3     2     7    2
     4     3     4    1
     5     3     5    1
     6     3     9    1
     7     4     6    1
     8     4    10    1
     9     4    11    1
    10     5    12    1
    11     5    13    1
    12     5    14    1
    13     6    15    1
    14     6    16    1
    15     6    17    1
    16     7     8    1
    17     8    18    1
    18     8    19    1
    19     8    20    1
