@<TRIPOS>MOLECULE
IMPHY012691
 30 31 0 0 0
SMALL
GASTEIGER

@<TRIPOS>ATOM
      1 O           5.2619   -0.6815    0.0000 O.3     1  UNL1       -0.4534
      2 O           4.9889   -2.4367    0.0000 O.2     1  UNL1       -0.2449
      3 C           4.6783    0.1233    0.0000 C.3     1  UNL1        0.1255
      4 C           3.7320   -0.1815    0.0000 C.2     1  UNL1       -0.0154
      5 C           4.9889    1.0738    0.0000 C.3     1  UNL1       -0.0117
      6 C           2.8660    0.3185    0.0000 C.3     1  UNL1       -0.0238
      7 C           3.7320   -1.1815    0.0000 C.2     1  UNL1        0.0614
      8 C           5.9674    1.2800    0.0000 C.3     1  UNL1       -0.0496
      9 C           2.0000   -0.1815    0.0000 C.3     1  UNL1       -0.0306
     10 C           4.6783   -1.4862    0.0000 C.2     1  UNL1        0.3398
     11 C           6.2781    2.2305    0.0000 C.3     1  UNL1       -0.0558
     12 C           2.8660   -1.6815    0.0000 C.2     1  UNL1       -0.0516
     13 C           2.0000   -1.1815    0.0000 C.2     1  UNL1       -0.0829
     14 C           7.2566    2.4367    0.0000 C.3     1  UNL1       -0.0653
     15 H           5.2908    0.2194    0.0000 H       1  UNL1        0.0782
     16 H           4.9684    1.6934    0.0000 H       1  UNL1        0.0304
     17 H           4.3751    1.1611    0.0000 H       1  UNL1        0.0304
     18 H           3.2646    0.7935    0.0000 H       1  UNL1        0.0314
     19 H           2.4675    0.7935    0.0000 H       1  UNL1        0.0314
     20 H           5.9880    0.6603    0.0000 H       1  UNL1        0.0266
     21 H           6.5812    1.1926    0.0000 H       1  UNL1        0.0266
     22 H           1.7880    0.4011    0.0000 H       1  UNL1        0.0310
     23 H           1.3894   -0.2891    0.0000 H       1  UNL1        0.0310
     24 H           6.2575    2.8502    0.0000 H       1  UNL1        0.0263
     25 H           5.6643    2.3179    0.0000 H       1  UNL1        0.0263
     26 H           2.8660   -2.3015    0.0000 H       1  UNL1        0.0623
     27 H           1.4631   -1.4915    0.0000 H       1  UNL1        0.0572
     28 H           7.3845    1.8301    0.0000 H       1  UNL1        0.0230
     29 H           7.8633    2.5646    0.0000 H       1  UNL1        0.0230
     30 H           7.1288    3.0434    0.0000 H       1  UNL1        0.0230
@<TRIPOS>BOND
     1     1     3    1
     2     1    10    1
     3     2    10    2
     4     3     4    1
     5     3     5    1
     6     3    15    1
     7     4     6    1
     8     4     7    2
     9     5     8    1
    10     5    16    1
    11     5    17    1
    12     6     9    1
    13     6    18    1
    14     6    19    1
    15     7    10    1
    16     7    12    1
    17     8    11    1
    18     8    20    1
    19     8    21    1
    20     9    13    1
    21     9    22    1
    22     9    23    1
    23    11    14    1
    24    11    24    1
    25    11    25    1
    26    12    13    2
    27    12    26    1
    28    13    27    1
    29    14    28    1
    30    14    29    1
    31    14    30    1
