@<TRIPOS>MOLECULE
IMPHY013124
 59 62 0 0 0
SMALL
GASTEIGER

@<TRIPOS>ATOM
      1 O           6.1557   -2.2471    0.0000 O.3     1  UNL1       -0.4850
      2 O           4.3217    0.8150    0.0000 O.2     1  UNL1       -0.4542
      3 O           2.5357   -2.2301    0.0000 O.3     1  UNL1       -0.5063
      4 O          10.4161    0.2819    0.0000 O.3     1  UNL1       -0.3891
      5 O           6.9198   -0.6850    0.0000 O.2     1  UNL1       -0.2863
      6 O           7.8397    2.8601    0.0000 O.3     1  UNL1       -0.4912
      7 O           6.0659    3.8842    0.0000 O.3     1  UNL1       -0.5032
      8 C           6.1725   -3.3320    0.0000 C.3     1  UNL1        0.1054
      9 C           5.2370   -3.8817    0.0000 C.3     1  UNL1       -0.0092
     10 C           4.2974   -3.3392    0.0000 C.3     1  UNL1       -0.0171
     11 C           4.3058   -2.2543    0.0000 C.ar    1  UNL1        0.0367
     12 C           5.2038   -1.7265    0.0000 C.ar    1  UNL1        0.1423
     13 C           5.1877   -0.6850    0.0000 C.ar    1  UNL1        0.1066
     14 C           6.6824   -4.1922    0.0000 C.3     1  UNL1       -0.0252
     15 C           7.1724   -3.3204    0.0000 C.3     1  UNL1       -0.0252
     16 C           6.0538    0.8150    0.0000 C.ar    1  UNL1        0.0716
     17 C           4.3217   -0.1850    0.0000 C.ar    1  UNL1        0.1463
     18 C           3.4037   -1.7334    0.0000 C.ar    1  UNL1        0.1270
     19 C           7.8240    0.8119    0.0000 C.3     1  UNL1       -0.0207
     20 C           6.9638    1.3218    0.0000 C.ar    1  UNL1        0.0123
     21 C           8.6957    1.3018    0.0000 C.3     1  UNL1       -0.0204
     22 C           6.0538   -0.1850    0.0000 C.ar    1  UNL1        0.2041
     23 C           9.5559    0.7918    0.0000 C.3     1  UNL1        0.0608
     24 C           3.4117   -0.6918    0.0000 C.ar    1  UNL1        0.0234
     25 C           5.1877    1.3150    0.0000 C.ar    1  UNL1        0.1432
     26 C           6.9718    2.3634    0.0000 C.ar    1  UNL1        0.1653
     27 C           5.1717    2.3565    0.0000 C.ar    1  UNL1        0.0265
     28 C          10.0659    1.6520    0.0000 C.3     1  UNL1       -0.0363
     29 C           9.0459   -0.0683    0.0000 C.3     1  UNL1       -0.0363
     30 C           6.0697    2.8843    0.0000 C.ar    1  UNL1        0.1623
     31 C           7.8436    3.8601    0.0000 C.3     1  UNL1        0.0790
     32 H           4.8397   -4.3577    0.0000 H       1  UNL1        0.0307
     33 H           5.6380   -4.3546    0.0000 H       1  UNL1        0.0307
     34 H           3.6874   -3.2284    0.0000 H       1  UNL1        0.0317
     35 H           4.0838   -3.9213    0.0000 H       1  UNL1        0.0317
     36 H           6.1491   -4.5084    0.0000 H       1  UNL1        0.0268
     37 H           6.9986   -4.7255    0.0000 H       1  UNL1        0.0268
     38 H           7.2158   -3.8760    0.0000 H       1  UNL1        0.0268
     39 H           7.1796   -3.9404    0.0000 H       1  UNL1        0.0268
     40 H           7.7924   -3.3133    0.0000 H       1  UNL1        0.0268
     41 H           7.1652   -2.7005    0.0000 H       1  UNL1        0.0268
     42 H           7.4200    0.3416    0.0000 H       1  UNL1        0.0315
     43 H           8.2170    0.3323    0.0000 H       1  UNL1        0.0315
     44 H           9.0997    1.7721    0.0000 H       1  UNL1        0.0296
     45 H           8.3027    1.7813    0.0000 H       1  UNL1        0.0296
     46 H           2.8784   -0.3757    0.0000 H       1  UNL1        0.0691
     47 H           4.6312    2.6603    0.0000 H       1  UNL1        0.0692
     48 H          10.5992    1.3358    0.0000 H       1  UNL1        0.0257
     49 H          10.3821    2.1853    0.0000 H       1  UNL1        0.0257
     50 H           9.5326    1.9682    0.0000 H       1  UNL1        0.0257
     51 H           8.5126    0.2478    0.0000 H       1  UNL1        0.0257
     52 H           8.7297   -0.6017    0.0000 H       1  UNL1        0.0257
     53 H           9.5792   -0.3845    0.0000 H       1  UNL1        0.0257
     54 H           2.0000   -1.9180    0.0000 H       1  UNL1        0.2921
     55 H          10.9566    0.5856    0.0000 H       1  UNL1        0.2101
     56 H           5.5277    4.1922    0.0000 H       1  UNL1        0.2923
     57 H           8.4636    3.8577    0.0000 H       1  UNL1        0.0660
     58 H           7.8460    4.4801    0.0000 H       1  UNL1        0.0660
     59 H           7.2236    3.8625    0.0000 H       1  UNL1        0.0660
@<TRIPOS>BOND
     1     1     8    1
     2     1    12    1
     3     2    17   ar
     4     2    25   ar
     5     3    18    1
     6     3    54    1
     7     4    23    1
     8     4    55    1
     9     5    22    2
    10     6    26    1
    11     6    31    1
    12     7    30    1
    13     7    56    1
    14     8     9    1
    15     8    14    1
    16     8    15    1
    17     9    10    1
    18     9    32    1
    19     9    33    1
    20    10    11    1
    21    10    34    1
    22    10    35    1
    23    11    12   ar
    24    11    18   ar
    25    12    13   ar
    26    13    17   ar
    27    13    22   ar
    28    14    36    1
    29    14    37    1
    30    14    38    1
    31    15    39    1
    32    15    40    1
    33    15    41    1
    34    16    20   ar
    35    16    22   ar
    36    16    25   ar
    37    17    24   ar
    38    18    24   ar
    39    19    20    1
    40    19    21    1
    41    19    42    1
    42    19    43    1
    43    20    26   ar
    44    21    23    1
    45    21    44    1
    46    21    45    1
    47    23    28    1
    48    23    29    1
    49    24    46    1
    50    25    27   ar
    51    26    30   ar
    52    27    30   ar
    53    27    47    1
    54    28    48    1
    55    28    49    1
    56    28    50    1
    57    29    51    1
    58    29    52    1
    59    29    53    1
    60    31    57    1
    61    31    58    1
    62    31    59    1
