@<TRIPOS>MOLECULE
IMPHY005449
 51 54 0 0 0
SMALL
GASTEIGER

@<TRIPOS>ATOM
      1 O           3.9061    0.4397    0.0000 O.3     1  UNL1       -0.4811
      2 O           7.4260    0.4397    0.0000 O.2     1  UNL1       -0.4502
      3 O           5.6660   -2.5950    0.0000 O.3     1  UNL1       -0.5052
      4 O           7.4144   -2.6296    0.0000 O.2     1  UNL1       -0.2863
      5 O           9.2517    1.4827    0.0000 O.3     1  UNL1       -0.5009
      6 O          11.0711    0.4508    0.0000 O.3     1  UNL1       -0.5032
      7 C           5.6660    1.4050    0.0000 C.3     1  UNL1        0.0148
      8 C           5.6660    0.4050    0.0000 C.ar    1  UNL1        0.0474
      9 C           4.8000   -0.0950    0.0000 C.ar    1  UNL1        0.1399
     10 C           3.0000   -0.0742    0.0000 C.3     1  UNL1        0.1235
     11 C           6.5320   -0.0950    0.0000 C.ar    1  UNL1        0.1505
     12 C           4.8000   -1.0950    0.0000 C.ar    1  UNL1        0.0591
     13 C           6.5320   -1.0950    0.0000 C.ar    1  UNL1        0.1070
     14 C           5.6660   -1.5950    0.0000 C.ar    1  UNL1        0.1418
     15 C           4.6660    1.4050    0.0000 C.3     1  UNL1       -0.0521
     16 C           6.6660    1.4050    0.0000 C.3     1  UNL1       -0.0521
     17 C           3.0000   -1.1158    0.0000 C.2     1  UNL1       -0.0408
     18 C           3.9061   -1.6297    0.0000 C.2     1  UNL1       -0.0478
     19 C           5.6660    2.4050    0.0000 C.2     1  UNL1       -0.0809
     20 C           2.0000   -0.0703    0.0000 C.3     1  UNL1       -0.0215
     21 C           2.5033    0.7938    0.0000 C.3     1  UNL1       -0.0215
     22 C           7.4260   -1.6297    0.0000 C.ar    1  UNL1        0.2039
     23 C           8.3321   -1.1158    0.0000 C.ar    1  UNL1        0.0686
     24 C           8.3321   -0.0742    0.0000 C.ar    1  UNL1        0.1841
     25 C           9.2632    0.4827    0.0000 C.ar    1  UNL1        0.2021
     26 C           4.8000    2.9050    0.0000 C.2     1  UNL1       -0.1018
     27 C           9.2632   -1.6727    0.0000 C.ar    1  UNL1       -0.0437
     28 C          10.2070   -0.0525    0.0000 C.ar    1  UNL1        0.1620
     29 C          10.2070   -1.1375    0.0000 C.ar    1  UNL1       -0.0156
     30 H           6.6660    0.7850    0.0000 H       1  UNL1        0.0241
     31 H           4.6660    2.0250    0.0000 H       1  UNL1        0.0241
     32 H           4.0460    1.4050    0.0000 H       1  UNL1        0.0241
     33 H           4.6660    0.7850    0.0000 H       1  UNL1        0.0241
     34 H           7.2860    1.4050    0.0000 H       1  UNL1        0.0241
     35 H           6.6660    2.0250    0.0000 H       1  UNL1        0.0241
     36 H           2.4643   -1.4279    0.0000 H       1  UNL1        0.0611
     37 H           3.9132   -2.2496    0.0000 H       1  UNL1        0.0624
     38 H           6.2030    2.7150    0.0000 H       1  UNL1        0.0575
     39 H           2.0024    0.5497    0.0000 H       1  UNL1        0.0271
     40 H           1.3800   -0.0679    0.0000 H       1  UNL1        0.0271
     41 H           3.0415    1.1017    0.0000 H       1  UNL1        0.0271
     42 H           2.1954    1.3319    0.0000 H       1  UNL1        0.0271
     43 H           1.9652    0.4858    0.0000 H       1  UNL1        0.0271
     44 H           1.9976   -0.6903    0.0000 H       1  UNL1        0.0271
     45 H           4.8000    3.5250    0.0000 H       1  UNL1        0.0532
     46 H           4.2631    2.5950    0.0000 H       1  UNL1        0.0532
     47 H           9.2560   -2.2927    0.0000 H       1  UNL1        0.0627
     48 H           5.1291   -2.9050    0.0000 H       1  UNL1        0.2922
     49 H          10.7427   -1.4496    0.0000 H       1  UNL1        0.0655
     50 H           9.7850    1.7989    0.0000 H       1  UNL1        0.2924
     51 H          11.6092    0.1429    0.0000 H       1  UNL1        0.2923
@<TRIPOS>BOND
     1     1     9    1
     2     1    10    1
     3     2    11   ar
     4     2    24   ar
     5     3    14    1
     6     3    48    1
     7     4    22    2
     8     5    25    1
     9     5    50    1
    10     6    28    1
    11     6    51    1
    12     7     8    1
    13     7    15    1
    14     7    16    1
    15     7    19    1
    16     8     9   ar
    17     8    11   ar
    18     9    12   ar
    19    10    17    1
    20    10    20    1
    21    10    21    1
    22    11    13   ar
    23    12    14   ar
    24    12    18    1
    25    13    14   ar
    26    13    22   ar
    27    15    31    1
    28    15    32    1
    29    15    33    1
    30    16    30    1
    31    16    34    1
    32    16    35    1
    33    17    18    2
    34    17    36    1
    35    18    37    1
    36    19    26    2
    37    19    38    1
    38    20    39    1
    39    20    40    1
    40    20    44    1
    41    21    41    1
    42    21    42    1
    43    21    43    1
    44    22    23   ar
    45    23    24   ar
    46    23    27   ar
    47    24    25   ar
    48    25    28   ar
    49    26    45    1
    50    26    46    1
    51    27    29   ar
    52    27    47    1
    53    28    29   ar
    54    29    49    1
