@<TRIPOS>MOLECULE
IMPHY017960
 16 17 0 0 0
SMALL
GASTEIGER

@<TRIPOS>ATOM
      1 C           0.0000   -1.3269    0.0000 C.2     1  UNL1       -0.0052
      2 C           0.0000   -2.6538    0.0000 C.2     1  UNL1       -0.0091
      3 C           1.1541   -3.3241    0.0000 C.2     1  UNL1       -0.0479
      4 C           2.3013   -2.6538    0.0000 C.3     1  UNL1       -0.0003
      5 C           2.3013   -1.3269    0.0000 C.3     1  UNL1        0.0184
      6 C           1.1541   -0.6634    0.0000 C.2     1  UNL1       -0.0268
      7 C           3.4554   -0.6634    0.0000 C.3     1  UNL1        0.0040
      8 C           4.6095   -1.3269    0.0000 C.3     1  UNL1        0.0003
      9 C           4.6095   -2.6538    0.0000 C.3     1  UNL1        0.0000
     10 C           3.4554   -3.3241    0.0000 C.3     1  UNL1        0.0001
     11 C           5.7567   -3.3241    0.0000 C.3     1  UNL1        0.0000
     12 C           6.9108   -2.6538    0.0000 C.3     1  UNL1        0.0000
     13 C           5.7567   -4.6510    0.0000 C.3     1  UNL1        0.0000
     14 C           2.3013    0.0000    0.0000 C.3     1  UNL1        0.0044
     15 H           2.3013   -3.9876    0.0000 H       1  UNL1        0.0361
     16 C           1.1541   -4.6510    0.0000 C.3     1  UNL1        0.0260
@<TRIPOS>BOND
     1     1     2    1
     2     1     6    2
     3     2     3    2
     4     3     4    1
     5     3    16    1
     6     4     5    1
     7     4    10    1
     8     4    15    1
     9     5     6    1
    10     5     7    1
    11     5    14    1
    12     7     8    1
    13     8     9    1
    14     9    10    1
    15     9    11    1
    16    11    12    1
    17    11    13    1
