@<TRIPOS>MOLECULE
IMPHY000484
 32 35 0 0 0
SMALL
GASTEIGER

@<TRIPOS>ATOM
      1 O        2454.5900 2424.3200    0.0000 O.2     1  UNL1       -0.2884
      2 C        2454.5900 2464.3200    0.0000 C.2     1  UNL1        0.2100
      3 C        2419.9500 2484.4700    0.0000 C.ar    1  UNL1        0.1102
      4 C        2419.9500 2524.7600    0.0000 C.ar    1  UNL1        0.1481
      5 O        2454.5900 2544.9100    0.0000 O.3     1  UNL1       -0.4714
      6 C        2489.1300 2524.7600    0.0000 C.3     1  UNL1        0.2226
      7 C        2489.1300 2484.4700    0.0000 C.3     1  UNL1        0.2229
      8 O        2523.7700 2464.5200    0.0000 O.3     1  UNL1       -0.3190
      9 C        2563.7700 2464.5200    0.0000 C.3     1  UNL1        0.2699
     10 O        2583.7200 2499.1600    0.0000 O.3     1  UNL1       -0.3256
     11 C        2623.7200 2499.1600    0.0000 C.3     1  UNL1        0.1835
     12 C        2643.6700 2533.8000    0.0000 C.3     1  UNL1        0.2142
     13 O        2678.3100 2513.7500    0.0000 O.3     1  UNL1       -0.2176
     14 C        2643.7700 2464.5200    0.0000 C.3     1  UNL1        0.2144
     15 C        2623.7200 2429.8800    0.0000 C.3     1  UNL1        0.2198
     16 C        2583.7200 2429.8800    0.0000 C.3     1  UNL1        0.2406
     17 O        2563.6700 2395.3300    0.0000 O.3     1  UNL1       -0.2149
     18 O        2643.7700 2395.2400    0.0000 O.3     1  UNL1       -0.2174
     19 O        2683.7700 2464.5200    0.0000 O.3     1  UNL1       -0.2176
     20 C        2523.7700 2544.8100    0.0000 C.ar    1  UNL1        0.0203
     21 C        2523.7700 2584.8100    0.0000 C.ar    1  UNL1        0.0026
     22 C        2558.4100 2604.7600    0.0000 C.ar    1  UNL1        0.0418
     23 C        2593.0500 2584.8100    0.0000 C.ar    1  UNL1        0.1957
     24 C        2593.0500 2544.8100    0.0000 C.ar    1  UNL1        0.0418
     25 C        2558.4100 2524.7600    0.0000 C.ar    1  UNL1        0.0026
     26 O        2627.6900 2604.7600    0.0000 O.3     1  UNL1       -0.2866
     27 C        2385.4100 2544.9100    0.0000 C.ar    1  UNL1        0.0792
     28 C        2350.8700 2524.7600    0.0000 C.ar    1  UNL1        0.2020
     29 C        2350.8700 2484.4700    0.0000 C.ar    1  UNL1        0.0843
     30 C        2385.4100 2464.3200    0.0000 C.ar    1  UNL1        0.2046
     31 O        2385.4100 2424.3200    0.0000 O.3     1  UNL1       -0.2863
     32 O        2316.2300 2544.8100    0.0000 O.3     1  UNL1       -0.2864
@<TRIPOS>BOND
     1     1     2    2
     2     2     3    1
     3     2     7    1
     4     3     4   ar
     5     3    30   ar
     6     4     5    1
     7     4    27   ar
     8     6     5    1
     9     6    20    1
    10     7     6    1
    11     7     8    1
    12     9     8    1
    13     9    10    1
    14     9    16    1
    15    10    11    1
    16    11    12    1
    17    11    14    1
    18    12    13    1
    19    14    19    1
    20    15    14    1
    21    15    18    1
    22    16    15    1
    23    16    17    1
    24    20    21   ar
    25    20    25   ar
    26    21    22   ar
    27    22    23   ar
    28    23    26    1
    29    24    23   ar
    30    25    24   ar
    31    27    28   ar
    32    28    32    1
    33    29    28   ar
    34    30    29   ar
    35    30    31    1
