@<TRIPOS>MOLECULE
IMPHY001822
 50 50 0 0 0
SMALL
GASTEIGER

@<TRIPOS>ATOM
      1 O           8.5991   -0.5000    0.0000 O.3     1  UNL1       -0.3914
      2 O           7.7331    1.0000    0.0000 O.2     1  UNL1       -0.2973
      3 O           4.2690    5.0000    0.0000 O.3     1  UNL1       -0.4915
      4 O           2.5369    4.0000    0.0000 O.3     1  UNL1       -0.5033
      5 C           7.7331   -2.0000    0.0000 C.3     1  UNL1       -0.0265
      6 C           8.5991   -2.5000    0.0000 C.3     1  UNL1       -0.0507
      7 C           7.7331   -1.0000    0.0000 C.3     1  UNL1        0.0619
      8 C           8.5991   -3.5000    0.0000 C.3     1  UNL1       -0.0530
      9 C           6.8671   -0.5000    0.0000 C.3     1  UNL1        0.0319
     10 C           9.4651   -4.0000    0.0000 C.3     1  UNL1       -0.0533
     11 C           6.8671    0.5000    0.0000 C.2     1  UNL1        0.1361
     12 C           9.4651   -5.0000    0.0000 C.3     1  UNL1       -0.0559
     13 C           6.0010    1.0000    0.0000 C.3     1  UNL1        0.0099
     14 C           6.0010    2.0000    0.0000 C.3     1  UNL1       -0.0209
     15 C          10.3312   -5.5000    0.0000 C.3     1  UNL1       -0.0653
     16 C           5.1350    2.5000    0.0000 C.ar    1  UNL1       -0.0433
     17 C           5.1350    3.5000    0.0000 C.ar    1  UNL1       -0.0131
     18 C           4.2690    2.0000    0.0000 C.ar    1  UNL1       -0.0549
     19 C           4.2690    4.0000    0.0000 C.ar    1  UNL1        0.1615
     20 C           3.4030    2.5000    0.0000 C.ar    1  UNL1       -0.0163
     21 C           3.4030    3.5000    0.0000 C.ar    1  UNL1        0.1585
     22 C           5.1350    5.5000    0.0000 C.3     1  UNL1        0.0790
     23 H           7.1225   -1.8923    0.0000 H       1  UNL1        0.0290
     24 H           7.5210   -2.5826    0.0000 H       1  UNL1        0.0290
     25 H           9.2097   -2.6077    0.0000 H       1  UNL1        0.0266
     26 H           8.8112   -1.9174    0.0000 H       1  UNL1        0.0266
     27 H           7.7331   -0.1500    0.0000 H       1  UNL1        0.0597
     28 H           7.9885   -3.3923    0.0000 H       1  UNL1        0.0265
     29 H           8.3871   -4.0826    0.0000 H       1  UNL1        0.0265
     30 H           6.2565   -0.3923    0.0000 H       1  UNL1        0.0367
     31 H           6.6550   -1.0826    0.0000 H       1  UNL1        0.0367
     32 H          10.0757   -4.1077    0.0000 H       1  UNL1        0.0265
     33 H           9.6772   -3.4174    0.0000 H       1  UNL1        0.0265
     34 H           8.8546   -4.8923    0.0000 H       1  UNL1        0.0263
     35 H           9.2531   -5.5826    0.0000 H       1  UNL1        0.0263
     36 H           5.3905    1.1077    0.0000 H       1  UNL1        0.0345
     37 H           5.7890    0.4174    0.0000 H       1  UNL1        0.0345
     38 H           6.6116    1.8923    0.0000 H       1  UNL1        0.0317
     39 H           6.2131    2.5826    0.0000 H       1  UNL1        0.0317
     40 H           9.1360   -0.8100    0.0000 H       1  UNL1        0.2098
     41 H          10.0212   -6.0369    0.0000 H       1  UNL1        0.0230
     42 H          10.8681   -5.8100    0.0000 H       1  UNL1        0.0230
     43 H          10.6412   -4.9631    0.0000 H       1  UNL1        0.0230
     44 H           5.6720    3.8100    0.0000 H       1  UNL1        0.0658
     45 H           4.2690    1.3800    0.0000 H       1  UNL1        0.0621
     46 H           2.8660    2.1900    0.0000 H       1  UNL1        0.0655
     47 H           2.0000    3.6900    0.0000 H       1  UNL1        0.2923
     48 H           5.4450    4.9631    0.0000 H       1  UNL1        0.0660
     49 H           5.6720    5.8100    0.0000 H       1  UNL1        0.0660
     50 H           4.8250    6.0369    0.0000 H       1  UNL1        0.0660
@<TRIPOS>BOND
     1     1     7    1
     2     1    40    1
     3     2    11    2
     4     3    19    1
     5     3    22    1
     6     4    21    1
     7     4    47    1
     8     5     6    1
     9     5     7    1
    10     5    23    1
    11     5    24    1
    12     6     8    1
    13     6    25    1
    14     6    26    1
    15     7     9    1
    16     7    27    1
    17     8    10    1
    18     8    28    1
    19     8    29    1
    20     9    11    1
    21     9    30    1
    22     9    31    1
    23    10    12    1
    24    10    32    1
    25    10    33    1
    26    11    13    1
    27    12    15    1
    28    12    34    1
    29    12    35    1
    30    13    14    1
    31    13    36    1
    32    13    37    1
    33    14    16    1
    34    14    38    1
    35    14    39    1
    36    15    41    1
    37    15    42    1
    38    15    43    1
    39    16    17   ar
    40    16    18   ar
    41    17    19   ar
    42    17    44    1
    43    18    20   ar
    44    18    45    1
    45    19    21   ar
    46    20    21   ar
    47    20    46    1
    48    22    48    1
    49    22    49    1
    50    22    50    1
