@<TRIPOS>MOLECULE
IMPHY011483
 45 48 0 0 0
SMALL
GASTEIGER

@<TRIPOS>ATOM
      1 O           5.0960    1.6722    0.0000 O.3     1  UNL1       -0.3911
      2 O           3.0989   -1.7749    0.0000 O.3     1  UNL1       -0.3912
      3 O           6.6263   -2.2009    0.0000 O.2     1  UNL1       -0.2954
      4 N           7.0337    0.0152    0.0000 N.3     1  UNL1       -0.2898
      5 C           5.3016    0.0152    0.0000 C.3     1  UNL1        0.0275
      6 C           6.1676   -0.4848    0.0000 C.3     1  UNL1        0.0888
      7 C           4.5646   -0.6519    0.0000 C.3     1  UNL1        0.0021
      8 C           4.6187    0.7935    0.0000 C.3     1  UNL1        0.0636
      9 C           5.3016    1.0152    0.0000 C.3     1  UNL1       -0.0414
     10 C           4.9697   -1.5597    0.0000 C.3     1  UNL1        0.0135
     11 C           6.8347   -1.2218    0.0000 C.3     1  UNL1       -0.0258
     12 C           5.9584   -1.4566    0.0000 C.2     1  UNL1        0.1544
     13 C           3.5558   -0.8854    0.0000 C.3     1  UNL1        0.0617
     14 C           3.4607    0.6765    0.0000 C.3     1  UNL1       -0.0213
     15 C           2.9992   -0.2161    0.0000 C.3     1  UNL1       -0.0152
     16 C           6.1676    1.5152    0.0000 C.3     1  UNL1       -0.0395
     17 C           7.0337    1.0152    0.0000 C.3     1  UNL1       -0.0002
     18 C           8.0055   -0.1940    0.0000 C.3     1  UNL1       -0.0001
     19 C           7.9255   -0.9997    0.0000 C.3     1  UNL1       -0.0381
     20 C           2.0000   -0.2575    0.0000 C.3     1  UNL1       -0.0600
     21 H           4.1859   -1.4129    0.0000 H       1  UNL1        0.0337
     22 H           4.2753    1.3098    0.0000 H       1  UNL1        0.0600
     23 H           5.0896    1.5978    0.0000 H       1  UNL1        0.0273
     24 H           4.6910    0.9075    0.0000 H       1  UNL1        0.0273
     25 H           4.3801   -1.7514    0.0000 H       1  UNL1        0.0346
     26 H           5.0984   -2.1662    0.0000 H       1  UNL1        0.0346
     27 H           6.3086   -1.5498    0.0000 H       1  UNL1        0.0288
     28 H           7.0642   -1.7978    0.0000 H       1  UNL1        0.0288
     29 H           2.9395   -0.9532    0.0000 H       1  UNL1        0.0599
     30 H           3.5176    1.2938    0.0000 H       1  UNL1        0.0294
     31 H           2.8656    0.8505    0.0000 H       1  UNL1        0.0294
     32 H           2.6659    0.3067    0.0000 H       1  UNL1        0.0324
     33 H           6.5662    1.9901    0.0000 H       1  UNL1        0.0278
     34 H           5.7691    1.9901    0.0000 H       1  UNL1        0.0278
     35 H           7.6442    0.9075    0.0000 H       1  UNL1        0.0427
     36 H           7.2457    1.5978    0.0000 H       1  UNL1        0.0427
     37 H           8.6197   -0.2785    0.0000 H       1  UNL1        0.0427
     38 H           8.1130    0.4166    0.0000 H       1  UNL1        0.0427
     39 H           7.9880   -1.6166    0.0000 H       1  UNL1        0.0278
     40 H           8.5455   -0.9991    0.0000 H       1  UNL1        0.0278
     41 H           4.7722    2.2009    0.0000 H       1  UNL1        0.2098
     42 H           1.9744    0.3620    0.0000 H       1  UNL1        0.0233
     43 H           1.3805   -0.2831    0.0000 H       1  UNL1        0.0233
     44 H           2.0256   -0.8769    0.0000 H       1  UNL1        0.0233
     45 H           2.4796   -1.8053    0.0000 H       1  UNL1        0.2098
@<TRIPOS>BOND
     1     8     1    1
     2     1    41    1
     3    13     2    1
     4     2    45    1
     5     3    12    2
     6     4     6    1
     7     4    17    1
     8     4    18    1
     9     5     6    1
    10     5     7    1
    11     5     8    1
    12     5     9    1
    13     6    11    1
    14     6    12    1
    15     7    10    1
    16     7    13    1
    17     7    21    1
    18     8    14    1
    19     8    22    1
    20     9    16    1
    21     9    23    1
    22     9    24    1
    23    10    12    1
    24    10    25    1
    25    10    26    1
    26    11    19    1
    27    11    27    1
    28    11    28    1
    29    13    15    1
    30    13    29    1
    31    14    15    1
    32    14    30    1
    33    14    31    1
    34    15    20    1
    35    15    32    1
    36    16    17    1
    37    16    33    1
    38    16    34    1
    39    17    35    1
    40    17    36    1
    41    18    19    1
    42    18    37    1
    43    18    38    1
    44    19    39    1
    45    19    40    1
    46    20    42    1
    47    20    43    1
    48    20    44    1
