@<TRIPOS>MOLECULE
IMPHY008380
 44 43 0 0 0
SMALL
GASTEIGER

@<TRIPOS>ATOM
      1 O          12.3923    0.4400    0.0000 O.3     1  UNL1       -0.4649
      2 O          11.5263   -1.0600    0.0000 O.2     1  UNL1       -0.2456
      3 C           5.4641    0.4400    0.0000 C.3     1  UNL1       -0.0286
      4 C           6.3301   -0.0600    0.0000 C.2     1  UNL1       -0.0762
      5 C           8.0622   -0.0600    0.0000 C.3     1  UNL1       -0.0308
      6 C           4.5981   -0.0600    0.0000 C.3     1  UNL1       -0.0308
      7 C           8.9282    0.4400    0.0000 C.3     1  UNL1       -0.0281
      8 C           7.1962    0.4400    0.0000 C.2     1  UNL1       -0.0847
      9 C           9.7942   -0.0600    0.0000 C.2     1  UNL1       -0.0656
     10 C           6.3301   -1.0600    0.0000 C.3     1  UNL1       -0.0438
     11 C           3.7320    0.4400    0.0000 C.2     1  UNL1       -0.0850
     12 C           2.8660   -0.0600    0.0000 C.2     1  UNL1       -0.0796
     13 C           9.7942   -1.0600    0.0000 C.3     1  UNL1       -0.0433
     14 C          10.6603    0.4400    0.0000 C.2     1  UNL1        0.0215
     15 C           2.0000    0.4400    0.0000 C.3     1  UNL1       -0.0440
     16 C           2.8660   -1.0600    0.0000 C.3     1  UNL1       -0.0440
     17 C          11.5263   -0.0600    0.0000 C.2     1  UNL1        0.3316
     18 C          13.2583   -0.0600    0.0000 C.3     1  UNL1        0.0820
     19 H           5.8626    0.9149    0.0000 H       1  UNL1        0.0313
     20 H           5.0656    0.9149    0.0000 H       1  UNL1        0.0313
     21 H           7.6636   -0.5349    0.0000 H       1  UNL1        0.0310
     22 H           8.4607   -0.5349    0.0000 H       1  UNL1        0.0310
     23 H           4.1996   -0.5349    0.0000 H       1  UNL1        0.0310
     24 H           4.9966   -0.5349    0.0000 H       1  UNL1        0.0310
     25 H           9.3267    0.9149    0.0000 H       1  UNL1        0.0313
     26 H           8.5297    0.9149    0.0000 H       1  UNL1        0.0313
     27 H           7.1962    1.0600    0.0000 H       1  UNL1        0.0572
     28 H           5.7101   -1.0600    0.0000 H       1  UNL1        0.0274
     29 H           6.3301   -1.6800    0.0000 H       1  UNL1        0.0274
     30 H           6.9501   -1.0600    0.0000 H       1  UNL1        0.0274
     31 H           3.7320    1.0600    0.0000 H       1  UNL1        0.0572
     32 H           9.1742   -1.0600    0.0000 H       1  UNL1        0.0274
     33 H           9.7942   -1.6800    0.0000 H       1  UNL1        0.0274
     34 H          10.4142   -1.0600    0.0000 H       1  UNL1        0.0274
     35 H          10.6603    1.0600    0.0000 H       1  UNL1        0.0688
     36 H           2.3100    0.9769    0.0000 H       1  UNL1        0.0274
     37 H           1.4631    0.7500    0.0000 H       1  UNL1        0.0274
     38 H           1.6900   -0.0969    0.0000 H       1  UNL1        0.0274
     39 H           2.2460   -1.0600    0.0000 H       1  UNL1        0.0274
     40 H           2.8660   -1.6800    0.0000 H       1  UNL1        0.0274
     41 H           3.4860   -1.0600    0.0000 H       1  UNL1        0.0274
     42 H          12.9483   -0.5969    0.0000 H       1  UNL1        0.0661
     43 H          13.7953   -0.3700    0.0000 H       1  UNL1        0.0661
     44 H          13.5683    0.4769    0.0000 H       1  UNL1        0.0661
@<TRIPOS>BOND
     1     1    17    1
     2     1    18    1
     3     2    17    2
     4     3     4    1
     5     3     6    1
     6     3    19    1
     7     3    20    1
     8     4     8    2
     9     4    10    1
    10     5     7    1
    11     5     8    1
    12     5    21    1
    13     5    22    1
    14     6    11    1
    15     6    23    1
    16     6    24    1
    17     7     9    1
    18     7    25    1
    19     7    26    1
    20     8    27    1
    21     9    13    1
    22     9    14    2
    23    10    28    1
    24    10    29    1
    25    10    30    1
    26    11    12    2
    27    11    31    1
    28    12    15    1
    29    12    16    1
    30    13    32    1
    31    13    33    1
    32    13    34    1
    33    14    17    1
    34    14    35    1
    35    15    36    1
    36    15    37    1
    37    15    38    1
    38    16    39    1
    39    16    40    1
    40    16    41    1
    41    18    42    1
    42    18    43    1
    43    18    44    1
