@<TRIPOS>MOLECULE
IMPHY007507
 91 95 0 0 0
SMALL
GASTEIGER

@<TRIPOS>ATOM
      1 O          11.1223    1.1849    0.0000 O.3     1  UNL1       -0.4600
      2 O           2.0000   -2.5933    0.0000 O.2     1  UNL1       -0.2968
      3 O          10.0707   -1.0134    0.0000 O.3     1  UNL1       -0.4801
      4 O          11.0491   -0.1795    0.0000 O.2     1  UNL1       -0.2502
      5 O          10.8282    2.8918    0.0000 O.2     1  UNL1       -0.2505
      6 C           6.5271   -1.0410    0.0000 C.3     1  UNL1       -0.0194
      7 C           5.6610   -0.5410    0.0000 C.3     1  UNL1       -0.0257
      8 C           7.3931   -0.5410    0.0000 C.3     1  UNL1       -0.0051
      9 C           4.7510   -1.0478    0.0000 C.3     1  UNL1       -0.0243
     10 C           4.7430   -2.0894    0.0000 C.3     1  UNL1       -0.0235
     11 C           6.5431   -2.0825    0.0000 C.3     1  UNL1       -0.0463
     12 C           7.3931    0.4590    0.0000 C.2     1  UNL1       -0.0627
     13 C           8.2870    0.9937    0.0000 C.3     1  UNL1        0.0003
     14 C           5.6451   -2.6102    0.0000 C.3     1  UNL1       -0.0483
     15 C           9.1931    0.4799    0.0000 C.3     1  UNL1        0.1107
     16 C           8.2870   -1.0756    0.0000 C.3     1  UNL1       -0.0423
     17 C           5.6610    0.4590    0.0000 C.3     1  UNL1       -0.0306
     18 C           3.8076   -2.6391    0.0000 C.3     1  UNL1        0.0267
     19 C           3.8242   -0.4837    0.0000 C.3     1  UNL1       -0.0404
     20 C           9.1931   -0.5618    0.0000 C.3     1  UNL1       -0.0324
     21 C           7.1698   -1.8070    0.0000 C.3     1  UNL1       -0.0585
     22 C           6.5271    0.9590    0.0000 C.2     1  UNL1       -0.0836
     23 C           7.7352   -1.4806    0.0000 C.3     1  UNL1       -0.0553
     24 C           8.2619    2.0784    0.0000 C.3     1  UNL1       -0.0401
     25 C           4.7587   -0.0478    0.0000 C.3     1  UNL1       -0.0590
     26 C          10.1369    1.0151    0.0000 C.3     1  UNL1        0.1198
     27 C           9.1931    2.6353    0.0000 C.3     1  UNL1       -0.0309
     28 C           2.8763   -1.0117    0.0000 C.3     1  UNL1        0.0069
     29 C          10.1369    2.1001    0.0000 C.3     1  UNL1       -0.0094
     30 C           2.8680   -2.0966    0.0000 C.2     1  UNL1        0.1392
     31 C           3.3109   -3.5071    0.0000 C.3     1  UNL1       -0.0528
     32 C           4.3109   -3.5032    0.0000 C.3     1  UNL1       -0.0528
     33 C          10.0629   -0.0135    0.0000 C.2     1  UNL1        0.3151
     34 C           9.6830    3.5071    0.0000 C.3     1  UNL1       -0.0597
     35 C           8.6831    3.4955    0.0000 C.3     1  UNL1       -0.0597
     36 C          11.4680    2.1233    0.0000 C.2     1  UNL1        0.3100
     37 C          12.4535    2.2932    0.0000 C.3     1  UNL1        0.0508
     38 C          12.7991    3.2315    0.0000 C.3     1  UNL1       -0.0525
     39 C          13.0933    1.5246    0.0000 C.3     1  UNL1       -0.0525
     40 H           6.3972   -0.1160    0.0000 H       1  UNL1        0.0315
     41 H           4.7463   -2.9394    0.0000 H       1  UNL1        0.0315
     42 H           6.7612   -2.6629    0.0000 H       1  UNL1        0.0271
     43 H           7.1523   -1.9670    0.0000 H       1  UNL1        0.0271
     44 H           9.0165    1.4300    0.0000 H       1  UNL1        0.0358
     45 H           5.2478   -3.0862    0.0000 H       1  UNL1        0.0269
     46 H           6.0460   -3.0831    0.0000 H       1  UNL1        0.0269
     47 H           7.8824   -1.5454    0.0000 H       1  UNL1        0.0274
     48 H           8.6806   -1.5546    0.0000 H       1  UNL1        0.0274
     49 H           5.4490    1.0416    0.0000 H       1  UNL1        0.0310
     50 H           5.0504    0.3514    0.0000 H       1  UNL1        0.0310
     51 H           4.2324   -0.0171    0.0000 H       1  UNL1        0.0275
     52 H           3.4343   -0.0017    0.0000 H       1  UNL1        0.0275
     53 H           9.4022   -1.1455    0.0000 H       1  UNL1        0.0277
     54 H           9.8040   -0.4557    0.0000 H       1  UNL1        0.0277
     55 H           6.6949   -2.2055    0.0000 H       1  UNL1        0.0235
     56 H           7.5684   -2.2820    0.0000 H       1  UNL1        0.0235
     57 H           7.6448   -1.4085    0.0000 H       1  UNL1        0.0235
     58 H           6.5271    1.5790    0.0000 H       1  UNL1        0.0572
     59 H           7.1526   -1.6927    0.0000 H       1  UNL1        0.0238
     60 H           7.9473   -2.0632    0.0000 H       1  UNL1        0.0238
     61 H           8.3178   -1.2685    0.0000 H       1  UNL1        0.0238
     62 H           8.0394    2.6571    0.0000 H       1  UNL1        0.0276
     63 H           7.6537    1.9582    0.0000 H       1  UNL1        0.0276
     64 H           5.3787   -0.0526    0.0000 H       1  UNL1        0.0235
     65 H           4.7635    0.5721    0.0000 H       1  UNL1        0.0235
     66 H           4.1388   -0.0431    0.0000 H       1  UNL1        0.0235
     67 H          10.3456    0.4313    0.0000 H       1  UNL1        0.0745
     68 H           2.6718   -0.4264    0.0000 H       1  UNL1        0.0342
     69 H           2.2647   -1.1131    0.0000 H       1  UNL1        0.0342
     70 H          10.7477    1.9940    0.0000 H       1  UNL1        0.0306
     71 H          10.3459    2.6838    0.0000 H       1  UNL1        0.0306
     72 H           2.7728   -3.1992    0.0000 H       1  UNL1        0.0239
     73 H           3.0030   -4.0452    0.0000 H       1  UNL1        0.0239
     74 H           3.7752   -3.8153    0.0000 H       1  UNL1        0.0239
     75 H           3.8490   -3.8150    0.0000 H       1  UNL1        0.0239
     76 H           4.6230   -4.0390    0.0000 H       1  UNL1        0.0239
     77 H           4.8466   -3.1912    0.0000 H       1  UNL1        0.0239
     78 H           9.2164    3.8117    0.0000 H       1  UNL1        0.0235
     79 H          10.2235    3.2033    0.0000 H       1  UNL1        0.0235
     80 H           9.9868    4.0476    0.0000 H       1  UNL1        0.0235
     81 H           9.1426    3.8108    0.0000 H       1  UNL1        0.0235
     82 H           8.3669    4.0288    0.0000 H       1  UNL1        0.0235
     83 H           8.1498    3.1793    0.0000 H       1  UNL1        0.0235
     84 H          10.6100   -1.3193    0.0000 H       1  UNL1        0.2951
     85 H          13.0645    2.3985    0.0000 H       1  UNL1        0.0408
     86 H          13.3809    3.0172    0.0000 H       1  UNL1        0.0237
     87 H          13.0134    3.8133    0.0000 H       1  UNL1        0.0237
     88 H          12.2173    3.4458    0.0000 H       1  UNL1        0.0237
     89 H          12.6168    1.1280    0.0000 H       1  UNL1        0.0237
     90 H          13.4900    1.0482    0.0000 H       1  UNL1        0.0237
     91 H          13.5698    1.9213    0.0000 H       1  UNL1        0.0237
@<TRIPOS>BOND
     1    26     1    1
     2     1    36    1
     3     2    30    2
     4     3    33    1
     5     3    84    1
     6     4    33    2
     7     5    36    2
     8     6     7    1
     9     6     8    1
    10     6    11    1
    11     6    21    1
    12     7     9    1
    13     7    17    1
    14     7    40    1
    15     8    12    1
    16     8    16    1
    17     8    23    1
    18     9    10    1
    19     9    19    1
    20     9    25    1
    21    10    14    1
    22    10    18    1
    23    10    41    1
    24    11    14    1
    25    11    42    1
    26    11    43    1
    27    12    13    1
    28    12    22    2
    29    13    15    1
    30    13    24    1
    31    13    44    1
    32    14    45    1
    33    14    46    1
    34    15    20    1
    35    15    26    1
    36    15    33    1
    37    16    20    1
    38    16    47    1
    39    16    48    1
    40    17    22    1
    41    17    49    1
    42    17    50    1
    43    18    30    1
    44    18    31    1
    45    18    32    1
    46    19    28    1
    47    19    51    1
    48    19    52    1
    49    20    53    1
    50    20    54    1
    51    21    55    1
    52    21    56    1
    53    21    57    1
    54    22    58    1
    55    23    59    1
    56    23    60    1
    57    23    61    1
    58    24    27    1
    59    24    62    1
    60    24    63    1
    61    25    64    1
    62    25    65    1
    63    25    66    1
    64    26    29    1
    65    26    67    1
    66    27    29    1
    67    27    34    1
    68    27    35    1
    69    28    30    1
    70    28    68    1
    71    28    69    1
    72    29    70    1
    73    29    71    1
    74    31    72    1
    75    31    73    1
    76    31    75    1
    77    32    74    1
    78    32    76    1
    79    32    77    1
    80    34    79    1
    81    34    80    1
    82    34    81    1
    83    35    78    1
    84    35    82    1
    85    35    83    1
    86    36    37    1
    87    37    38    1
    88    37    39    1
    89    37    85    1
    90    38    86    1
    91    38    87    1
    92    38    88    1
    93    39    89    1
    94    39    90    1
    95    39    91    1
