@<TRIPOS>MOLECULE
IMPHY000106
 42 45 0 0 0
SMALL
GASTEIGER

@<TRIPOS>ATOM
      1 O           4.4094    1.7673    0.0000 O.3     1  UNL1       -0.4601
      2 O           2.5033    1.2573    0.0000 O.3     1  UNL1       -0.3426
      3 O           7.0354    0.2326    0.0000 O.2     1  UNL1       -0.4217
      4 O           6.1694   -1.2674    0.0000 O.2     1  UNL1       -0.2447
      5 C           4.4094   -0.3021    0.0000 C.3     1  UNL1        0.0255
      6 C           3.5033    0.2118    0.0000 C.3     1  UNL1        0.0238
      7 C           3.5033    1.2534    0.0000 C.3     1  UNL1        0.2103
      8 C           5.3033    0.2326    0.0000 C.ar    1  UNL1        0.0868
      9 C           5.3033    1.2326    0.0000 C.ar    1  UNL1        0.1453
     10 C           4.4210   -1.3020    0.0000 C.ar    1  UNL1       -0.0394
     11 C           3.0067    2.1214    0.0000 C.3     1  UNL1        0.0011
     12 C           6.1694    1.7326    0.0000 C.ar    1  UNL1        0.0596
     13 C           6.1694   -0.2674    0.0000 C.ar    1  UNL1        0.3446
     14 C           7.0354    1.2326    0.0000 C.ar    1  UNL1        0.1426
     15 C           3.5608   -1.8120    0.0000 C.ar    1  UNL1       -0.0580
     16 C           5.2927   -1.7920    0.0000 C.ar    1  UNL1       -0.0580
     17 C           6.1533    2.7741    0.0000 C.ar    1  UNL1       -0.0475
     18 C           2.0000    0.3932    0.0000 C.3     1  UNL1        0.0407
     19 C           7.9454    1.7394    0.0000 C.ar    1  UNL1       -0.0185
     20 C           3.5723   -2.8119    0.0000 C.ar    1  UNL1       -0.0615
     21 C           5.3043   -2.7919    0.0000 C.ar    1  UNL1       -0.0615
     22 C           7.0513    3.3019    0.0000 C.ar    1  UNL1       -0.0609
     23 C           4.4441   -3.3019    0.0000 C.ar    1  UNL1       -0.0617
     24 C           7.9534    2.7810    0.0000 C.ar    1  UNL1       -0.0582
     25 H           3.8755   -0.6172    0.0000 H       1  UNL1        0.0403
     26 H           2.8925    0.3179    0.0000 H       1  UNL1        0.0337
     27 H           3.2943   -0.3719    0.0000 H       1  UNL1        0.0337
     28 H           3.5448    2.4293    0.0000 H       1  UNL1        0.0293
     29 H           2.6987    2.6595    0.0000 H       1  UNL1        0.0293
     30 H           2.4685    1.8134    0.0000 H       1  UNL1        0.0293
     31 H           3.0203   -1.5082    0.0000 H       1  UNL1        0.0620
     32 H           5.8260   -1.4758    0.0000 H       1  UNL1        0.0620
     33 H           5.6128    3.0779    0.0000 H       1  UNL1        0.0626
     34 H           1.4643    0.7052    0.0000 H       1  UNL1        0.0525
     35 H           1.6879   -0.1426    0.0000 H       1  UNL1        0.0525
     36 H           2.5357    0.0811    0.0000 H       1  UNL1        0.0525
     37 H           8.4787    1.4233    0.0000 H       1  UNL1        0.0654
     38 H           3.0390   -3.1281    0.0000 H       1  UNL1        0.0618
     39 H           5.8448   -3.0956    0.0000 H       1  UNL1        0.0618
     40 H           7.0490    3.9219    0.0000 H       1  UNL1        0.0618
     41 H           4.4512   -3.9218    0.0000 H       1  UNL1        0.0618
     42 H           8.4915    3.0890    0.0000 H       1  UNL1        0.0619
@<TRIPOS>BOND
     1     1     7    1
     2     1     9    1
     3     2     7    1
     4     2    18    1
     5     3    13   ar
     6     3    14   ar
     7     4    13    2
     8     5     6    1
     9     5     8    1
    10     5    10    1
    11     5    25    1
    12     6     7    1
    13     6    26    1
    14     6    27    1
    15     7    11    1
    16     8     9   ar
    17     8    13   ar
    18     9    12   ar
    19    10    15   ar
    20    10    16   ar
    21    11    28    1
    22    11    29    1
    23    11    30    1
    24    12    14   ar
    25    12    17   ar
    26    14    19   ar
    27    15    20   ar
    28    15    31    1
    29    16    21   ar
    30    16    32    1
    31    17    22   ar
    32    17    33    1
    33    18    34    1
    34    18    35    1
    35    18    36    1
    36    19    24   ar
    37    19    37    1
    38    20    23   ar
    39    20    38    1
    40    21    23   ar
    41    21    39    1
    42    22    24   ar
    43    22    40    1
    44    23    41    1
    45    24    42    1
