@<TRIPOS>MOLECULE
IMPHY011002
 21 20 0 0 0
SMALL
GASTEIGER

@<TRIPOS>ATOM
      1 O           5.4641   -0.2500    0.0000 O.3     1  UNL1       -0.3918
      2 C           3.7320   -0.2500    0.0000 C.3     1  UNL1       -0.0183
      3 C           4.5981    0.2500    0.0000 C.3     1  UNL1        0.0550
      4 C           2.8660    0.2500    0.0000 C.3     1  UNL1       -0.0510
      5 C           3.7320   -1.2500    0.0000 C.3     1  UNL1       -0.0601
      6 C           4.5981    1.2500    0.0000 C.3     1  UNL1       -0.0387
      7 C           2.0000   -0.2500    0.0000 C.3     1  UNL1       -0.0650
      8 H           4.2690   -0.5600    0.0000 H       1  UNL1        0.0323
      9 H           5.1350    0.5600    0.0000 H       1  UNL1        0.0593
     10 H           3.2646    0.7249    0.0000 H       1  UNL1        0.0266
     11 H           2.4675    0.7249    0.0000 H       1  UNL1        0.0266
     12 H           3.1120   -1.2500    0.0000 H       1  UNL1        0.0233
     13 H           3.7320   -1.8700    0.0000 H       1  UNL1        0.0233
     14 H           4.3520   -1.2500    0.0000 H       1  UNL1        0.0233
     15 H           5.2181    1.2500    0.0000 H       1  UNL1        0.0255
     16 H           4.5981    1.8700    0.0000 H       1  UNL1        0.0255
     17 H           3.9781    1.2500    0.0000 H       1  UNL1        0.0255
     18 H           1.6900    0.2869    0.0000 H       1  UNL1        0.0230
     19 H           1.4631   -0.5600    0.0000 H       1  UNL1        0.0230
     20 H           2.3100   -0.7869    0.0000 H       1  UNL1        0.0230
     21 H           6.0010    0.0600    0.0000 H       1  UNL1        0.2098
@<TRIPOS>BOND
     1     1     3    1
     2     1    21    1
     3     2     3    1
     4     2     4    1
     5     2     5    1
     6     2     8    1
     7     3     6    1
     8     3     9    1
     9     4     7    1
    10     4    10    1
    11     4    11    1
    12     5    12    1
    13     5    13    1
    14     5    14    1
    15     6    15    1
    16     6    16    1
    17     6    17    1
    18     7    18    1
    19     7    19    1
    20     7    20    1
