@<TRIPOS>MOLECULE
IMPHY007190
 45 48 0 0 0
SMALL
GASTEIGER

@<TRIPOS>ATOM
      1 O           2.8963    3.2496    0.0000 O.3     1  UNL1       -0.4907
      2 O           5.6405   -3.4188    0.0000 O.3     1  UNL1       -0.4914
      3 O           3.8372   -4.4786    0.0000 O.3     1  UNL1       -0.5033
      4 O           4.6622    4.2874    0.0000 O.3     1  UNL1       -0.4914
      5 N           2.9180    0.2181    0.0000 N.ar    1  UNL1       -0.1961
      6 C           2.0080   -0.2887    0.0000 C.3     1  UNL1        0.1550
      7 C           2.0000   -1.3304    0.0000 C.3     1  UNL1        0.0330
      8 C           3.7841   -0.2819    0.0000 C.ar    1  UNL1        0.2159
      9 C           3.8001   -1.3234    0.0000 C.ar    1  UNL1        0.0533
     10 C           2.9021   -1.8512    0.0000 C.ar    1  UNL1       -0.0243
     11 C           2.9180    1.2181    0.0000 C.ar    1  UNL1        0.1831
     12 C           4.6501    0.2181    0.0000 C.ar    1  UNL1        0.0183
     13 C           3.7841    1.7181    0.0000 C.ar    1  UNL1        0.0909
     14 C           4.6501    1.2181    0.0000 C.ar    1  UNL1       -0.0022
     15 C           4.7520   -1.8440    0.0000 C.ar    1  UNL1       -0.0026
     16 C           2.8937   -2.9361    0.0000 C.ar    1  UNL1       -0.0124
     17 C           3.7680    2.7596    0.0000 C.ar    1  UNL1        0.1748
     18 C           4.7688   -2.9289    0.0000 C.ar    1  UNL1        0.1620
     19 C           3.8334   -3.4786    0.0000 C.ar    1  UNL1        0.1587
     20 C           5.5601    1.7249    0.0000 C.ar    1  UNL1       -0.0499
     21 C           4.6660    3.2874    0.0000 C.ar    1  UNL1        0.1623
     22 C           5.5681    2.7665    0.0000 C.ar    1  UNL1       -0.0157
     23 C           2.8847    4.2495    0.0000 C.3     1  UNL1        0.0790
     24 C           5.6521   -4.4188    0.0000 C.3     1  UNL1        0.0790
     25 C           5.5263    4.7907    0.0000 C.3     1  UNL1        0.0790
     26 H           1.8035    0.2965    0.0000 H       1  UNL1        0.1034
     27 H           1.3964   -0.3901    0.0000 H       1  UNL1        0.1034
     28 H           1.3900   -1.2196    0.0000 H       1  UNL1        0.0375
     29 H           1.7864   -1.9124    0.0000 H       1  UNL1        0.0375
     30 H           2.3811    1.5281    0.0000 H       1  UNL1        0.1384
     31 H           5.1870   -0.0919    0.0000 H       1  UNL1        0.0690
     32 H           5.2829   -1.5237    0.0000 H       1  UNL1        0.0663
     33 H           2.3556   -3.2441    0.0000 H       1  UNL1        0.0658
     34 H           6.0934    1.4088    0.0000 H       1  UNL1        0.0625
     35 H           6.1062    3.0745    0.0000 H       1  UNL1        0.0655
     36 H           3.3015   -4.7907    0.0000 H       1  UNL1        0.2923
     37 H           3.5046    4.2567    0.0000 H       1  UNL1        0.0660
     38 H           2.8775    4.8694    0.0000 H       1  UNL1        0.0660
     39 H           2.2647    4.2423    0.0000 H       1  UNL1        0.0660
     40 H           5.0321   -4.4260    0.0000 H       1  UNL1        0.0660
     41 H           5.6592   -5.0387    0.0000 H       1  UNL1        0.0660
     42 H           6.2720   -4.4116    0.0000 H       1  UNL1        0.0660
     43 H           5.8383    4.2550    0.0000 H       1  UNL1        0.0660
     44 H           6.0620    5.1028    0.0000 H       1  UNL1        0.0660
     45 H           5.2142    5.3264    0.0000 H       1  UNL1        0.0660
@<TRIPOS>UNITY_ATOM_ATTR
5 1
charge 1
@<TRIPOS>BOND
     1     1    17    1
     2     1    23    1
     3     2    18    1
     4     2    24    1
     5     3    19    1
     6     3    36    1
     7     4    21    1
     8     4    25    1
     9     5     6    1
    10     5     8   ar
    11     5    11   ar
    12     6     7    1
    13     6    26    1
    14     6    27    1
    15     7    10    1
    16     7    28    1
    17     7    29    1
    18     8     9    1
    19     8    12   ar
    20     9    10   ar
    21     9    15   ar
    22    10    16   ar
    23    11    13   ar
    24    11    30    1
    25    12    14   ar
    26    12    31    1
    27    13    14   ar
    28    13    17   ar
    29    14    20   ar
    30    15    18   ar
    31    15    32    1
    32    16    19   ar
    33    16    33    1
    34    17    21   ar
    35    18    19   ar
    36    20    22   ar
    37    20    34    1
    38    21    22   ar
    39    22    35    1
    40    23    37    1
    41    23    38    1
    42    23    39    1
    43    24    40    1
    44    24    41    1
    45    24    42    1
    46    25    43    1
    47    25    44    1
    48    25    45    1
