@<TRIPOS>MOLECULE
IMPHY008598
 36 38 0 0 0
SMALL
GASTEIGER

@<TRIPOS>ATOM
      1 O           6.0522    0.6952    0.0000 O.3     1  UNL1       -0.3599
      2 O           6.9343   -1.8463    0.0000 O.3     1  UNL1       -0.4522
      3 O           8.7045   -0.8494    0.0000 O.3     1  UNL1       -0.3854
      4 O           8.7202    1.1988    0.0000 O.3     1  UNL1       -0.3865
      5 O           7.8105    2.7263    0.0000 O.3     1  UNL1       -0.3924
      6 O           4.3198    0.6883    0.0000 O.3     1  UNL1       -0.5030
      7 O           6.0682   -3.3463    0.0000 O.2     1  UNL1       -0.2449
      8 O           2.5381   -0.3221    0.0000 O.3     1  UNL1       -0.5009
      9 O           2.5381   -2.3704    0.0000 O.3     1  UNL1       -0.5032
     10 C           6.9343   -0.8463    0.0000 C.3     1  UNL1        0.1617
     11 C           6.0682   -0.3463    0.0000 C.3     1  UNL1        0.1278
     12 C           7.8443   -0.3394    0.0000 C.3     1  UNL1        0.1231
     13 C           7.8523    0.7022    0.0000 C.3     1  UNL1        0.1128
     14 C           6.9502    1.2230    0.0000 C.3     1  UNL1        0.1109
     15 C           5.2022   -0.8463    0.0000 C.ar    1  UNL1        0.0440
     16 C           6.9464    2.2230    0.0000 C.3     1  UNL1        0.0729
     17 C           5.2022   -1.8463    0.0000 C.ar    1  UNL1        0.0719
     18 C           6.0682   -2.3463    0.0000 C.2     1  UNL1        0.3402
     19 C           4.3083   -0.3116    0.0000 C.ar    1  UNL1        0.1686
     20 C           4.3083   -2.3810    0.0000 C.ar    1  UNL1       -0.0020
     21 C           3.4022   -0.8255    0.0000 C.ar    1  UNL1        0.2010
     22 C           3.4022   -1.8671    0.0000 C.ar    1  UNL1        0.1628
     23 H           7.6671   -1.2770    0.0000 H       1  UNL1        0.0791
     24 H           6.8011    0.0844    0.0000 H       1  UNL1        0.0686
     25 H           8.3842   -0.0346    0.0000 H       1  UNL1        0.0658
     26 H           8.3874    0.3891    0.0000 H       1  UNL1        0.0647
     27 H           6.4115    1.5299    0.0000 H       1  UNL1        0.0646
     28 H           6.7321    2.8048    0.0000 H       1  UNL1        0.0584
     29 H           6.3362    2.1130    0.0000 H       1  UNL1        0.0584
     30 H           9.2450   -0.5457    0.0000 H       1  UNL1        0.2101
     31 H           9.2560    0.8867    0.0000 H       1  UNL1        0.2100
     32 H           4.3154   -3.0009    0.0000 H       1  UNL1        0.0663
     33 H           7.8081    3.3463    0.0000 H       1  UNL1        0.2095
     34 H           3.7865    1.0045    0.0000 H       1  UNL1        0.2923
     35 H           2.0000   -0.6301    0.0000 H       1  UNL1        0.2924
     36 H           2.5405   -2.9904    0.0000 H       1  UNL1        0.2923
@<TRIPOS>BOND
     1     1    11    1
     2     1    14    1
     3     2    10    1
     4     2    18    1
     5    12     3    1
     6     3    30    1
     7    13     4    1
     8     4    31    1
     9     5    16    1
    10     5    33    1
    11     6    19    1
    12     6    34    1
    13     7    18    2
    14     8    21    1
    15     8    35    1
    16     9    22    1
    17     9    36    1
    18    10    11    1
    19    10    12    1
    20    10    23    1
    21    11    15    1
    22    11    24    1
    23    12    13    1
    24    12    25    1
    25    13    14    1
    26    13    26    1
    27    14    16    1
    28    14    27    1
    29    15    17   ar
    30    15    19   ar
    31    16    28    1
    32    16    29    1
    33    17    18    1
    34    17    20   ar
    35    19    21   ar
    36    20    22   ar
    37    20    32    1
    38    21    22   ar
