@<TRIPOS>MOLECULE
IMPHY005209
 79 81 0 0 0
SMALL
GASTEIGER

@<TRIPOS>ATOM
      1 O           5.1350   -1.0950    0.0000 O.3     1  UNL1       -0.3404
      2 O           6.8671   -1.0950    0.0000 O.3     1  UNL1       -0.3093
      3 O           6.0010    0.4050    0.0000 O.2     1  UNL1       -0.4699
      4 O           6.8671   -3.0950    0.0000 O.3     1  UNL1       -0.3841
      5 O           5.1350   -4.0950    0.0000 O.3     1  UNL1       -0.3864
      6 O           3.4030   -3.0950    0.0000 O.3     1  UNL1       -0.3865
      7 O           2.5369   -1.5950    0.0000 O.3     1  UNL1       -0.3924
      8 O           6.0010    3.4050    0.0000 O.3     1  UNL1       -0.4646
      9 O           7.7331    3.4050    0.0000 O.2     1  UNL1       -0.2452
     10 O          12.9292    0.4050    0.0000 O.3     1  UNL1       -0.3913
     11 O          11.1972    0.4050    0.0000 O.2     1  UNL1       -0.2926
     12 O          18.1254    3.4050    0.0000 O.3     1  UNL1       -0.5068
     13 C           6.0010   -2.5950    0.0000 C.3     1  UNL1        0.1342
     14 C           5.1350   -3.0950    0.0000 C.3     1  UNL1        0.1141
     15 C           6.0010   -1.5950    0.0000 C.3     1  UNL1        0.1918
     16 C           4.2690   -2.5950    0.0000 C.3     1  UNL1        0.1119
     17 C           7.7331    0.4050    0.0000 C.3     1  UNL1        0.0469
     18 C           4.2690   -1.5950    0.0000 C.3     1  UNL1        0.1130
     19 C           7.7331    1.4050    0.0000 C.3     1  UNL1        0.0092
     20 C           6.8671   -0.0950    0.0000 C.3     1  UNL1        0.2102
     21 C           8.5991    1.9050    0.0000 C.3     1  UNL1       -0.0265
     22 C           6.8671    1.9050    0.0000 C.2     1  UNL1        0.0748
     23 C           3.4030   -1.0950    0.0000 C.3     1  UNL1        0.0730
     24 C           8.5991   -0.0950    0.0000 C.2     1  UNL1       -0.0816
     25 C           6.0010    1.4050    0.0000 C.2     1  UNL1        0.0981
     26 C           9.4651    1.4050    0.0000 C.2     1  UNL1       -0.0801
     27 C           6.8671    2.9050    0.0000 C.2     1  UNL1        0.3381
     28 C           8.5991   -1.0950    0.0000 C.2     1  UNL1       -0.1022
     29 C          10.3312    1.9050    0.0000 C.2     1  UNL1       -0.0230
     30 C          11.1972    1.4050    0.0000 C.2     1  UNL1        0.1582
     31 C          12.0632    1.9050    0.0000 C.3     1  UNL1        0.0359
     32 C          12.9292    1.4050    0.0000 C.3     1  UNL1        0.0625
     33 C          13.7953    1.9050    0.0000 C.3     1  UNL1       -0.0225
     34 C          14.6613    1.4050    0.0000 C.3     1  UNL1       -0.0253
     35 C           6.0010    4.4050    0.0000 C.3     1  UNL1        0.0820
     36 C          15.5273    1.9050    0.0000 C.ar    1  UNL1       -0.0471
     37 C          15.5273    2.9050    0.0000 C.ar    1  UNL1       -0.0551
     38 C          16.3933    1.4050    0.0000 C.ar    1  UNL1       -0.0551
     39 C          16.3933    3.4050    0.0000 C.ar    1  UNL1       -0.0199
     40 C          17.2594    1.9050    0.0000 C.ar    1  UNL1       -0.0199
     41 C          17.2594    2.9050    0.0000 C.ar    1  UNL1        0.1169
     42 H           6.0010   -3.2150    0.0000 H       1  UNL1        0.0671
     43 H           4.5981   -3.4050    0.0000 H       1  UNL1        0.0648
     44 H           6.0010   -0.9750    0.0000 H       1  UNL1        0.0939
     45 H           3.7320   -2.2850    0.0000 H       1  UNL1        0.0647
     46 H           8.2700    0.7150    0.0000 H       1  UNL1        0.0410
     47 H           4.2690   -0.9750    0.0000 H       1  UNL1        0.0647
     48 H           7.7331    2.0250    0.0000 H       1  UNL1        0.0363
     49 H           7.4040   -0.4050    0.0000 H       1  UNL1        0.1062
     50 H           8.9976    2.3800    0.0000 H       1  UNL1        0.0313
     51 H           8.2006    2.3800    0.0000 H       1  UNL1        0.0313
     52 H           3.8015   -0.6201    0.0000 H       1  UNL1        0.0584
     53 H           3.0044   -0.6201    0.0000 H       1  UNL1        0.0584
     54 H           9.1360    0.2150    0.0000 H       1  UNL1        0.0571
     55 H           5.4641    1.7150    0.0000 H       1  UNL1        0.1029
     56 H           6.8671   -3.7150    0.0000 H       1  UNL1        0.2101
     57 H           4.5981   -4.4050    0.0000 H       1  UNL1        0.2100
     58 H           3.4030   -3.7150    0.0000 H       1  UNL1        0.2100
     59 H           9.4651    0.7850    0.0000 H       1  UNL1        0.0573
     60 H           8.0622   -1.4050    0.0000 H       1  UNL1        0.0532
     61 H           9.1360   -1.4050    0.0000 H       1  UNL1        0.0532
     62 H           2.0000   -1.2850    0.0000 H       1  UNL1        0.2095
     63 H          10.3312    2.5250    0.0000 H       1  UNL1        0.0649
     64 H          12.4617    2.3800    0.0000 H       1  UNL1        0.0370
     65 H          11.6647    2.3800    0.0000 H       1  UNL1        0.0370
     66 H          12.3923    1.0950    0.0000 H       1  UNL1        0.0597
     67 H          14.1938    2.3800    0.0000 H       1  UNL1        0.0293
     68 H          13.3967    2.3800    0.0000 H       1  UNL1        0.0293
     69 H          14.2628    0.9301    0.0000 H       1  UNL1        0.0314
     70 H          15.0598    0.9301    0.0000 H       1  UNL1        0.0314
     71 H           6.6210    4.4050    0.0000 H       1  UNL1        0.0661
     72 H           6.0010    5.0250    0.0000 H       1  UNL1        0.0661
     73 H           5.3810    4.4050    0.0000 H       1  UNL1        0.0661
     74 H          13.4662    0.0950    0.0000 H       1  UNL1        0.2098
     75 H          14.9904    3.2150    0.0000 H       1  UNL1        0.0621
     76 H          16.3933    0.7850    0.0000 H       1  UNL1        0.0621
     77 H          16.3933    4.0250    0.0000 H       1  UNL1        0.0654
     78 H          17.7963    1.5950    0.0000 H       1  UNL1        0.0654
     79 H          18.6623    3.0950    0.0000 H       1  UNL1        0.2921
@<TRIPOS>BOND
     1     1    15    1
     2     1    18    1
     3    15     2    1
     4    20     2    1
     5     3    20    1
     6     3    25    1
     7    13     4    1
     8     4    56    1
     9    14     5    1
    10     5    57    1
    11    16     6    1
    12     6    58    1
    13     7    23    1
    14     7    62    1
    15     8    27    1
    16     8    35    1
    17     9    27    2
    18    32    10    1
    19    10    74    1
    20    11    30    2
    21    12    41    1
    22    12    79    1
    23    13    14    1
    24    13    15    1
    25    13    42    1
    26    14    16    1
    27    14    43    1
    28    15    44    1
    29    16    18    1
    30    16    45    1
    31    17    19    1
    32    17    20    1
    33    17    24    1
    34    17    46    1
    35    18    23    1
    36    18    47    1
    37    19    21    1
    38    19    22    1
    39    19    48    1
    40    20    49    1
    41    21    26    1
    42    21    50    1
    43    21    51    1
    44    22    25    2
    45    22    27    1
    46    23    52    1
    47    23    53    1
    48    24    28    2
    49    24    54    1
    50    25    55    1
    51    26    29    2
    52    26    59    1
    53    28    60    1
    54    28    61    1
    55    29    30    1
    56    29    63    1
    57    30    31    1
    58    31    32    1
    59    31    64    1
    60    31    65    1
    61    32    33    1
    62    32    66    1
    63    33    34    1
    64    33    67    1
    65    33    68    1
    66    34    36    1
    67    34    69    1
    68    34    70    1
    69    35    71    1
    70    35    72    1
    71    35    73    1
    72    36    37   ar
    73    36    38   ar
    74    37    39   ar
    75    37    75    1
    76    38    40   ar
    77    38    76    1
    78    39    41   ar
    79    39    77    1
    80    40    41   ar
    81    40    78    1
