@<TRIPOS>MOLECULE
IMPHY001065
 25 26 0 0 0
SMALL
GASTEIGER

@<TRIPOS>ATOM
      1 O           6.3981   -0.7535    0.0000 O.3     1  UNL1       -0.4608
      2 O           5.4804   -2.2673    0.0000 O.2     1  UNL1       -0.2449
      3 O           2.8660    2.2673    0.0000 O.2     1  UNL1       -0.2960
      4 N           2.8660   -0.7327    0.0000 N.pl3   1  UNL1       -0.3423
      5 C           2.8660    0.2673    0.0000 C.3     1  UNL1        0.0459
      6 C           4.5981    0.2673    0.0000 C.2     1  UNL1       -0.0210
      7 C           3.7320    0.7673    0.0000 C.2     1  UNL1        0.0156
      8 C           5.4920    0.8020    0.0000 C.3     1  UNL1        0.0080
      9 C           4.5981   -0.7327    0.0000 C.2     1  UNL1        0.0761
     10 C           6.3981    0.2881    0.0000 C.3     1  UNL1        0.0968
     11 C           3.7320   -1.2327    0.0000 C.2     1  UNL1        0.0043
     12 C           2.0000    0.7673    0.0000 C.3     1  UNL1       -0.0424
     13 C           5.4920   -1.2674    0.0000 C.2     1  UNL1        0.3407
     14 C           3.7320    1.7673    0.0000 C.2     1  UNL1        0.1483
     15 H           2.1299   -0.1577    0.0000 H       1  UNL1        0.0545
     16 H           5.8856    1.2810    0.0000 H       1  UNL1        0.0346
     17 H           5.0874    1.2718    0.0000 H       1  UNL1        0.0346
     18 H           2.3291   -1.0427    0.0000 H       1  UNL1        0.1461
     19 H           7.0089    0.1820    0.0000 H       1  UNL1        0.0701
     20 H           6.6071    0.8718    0.0000 H       1  UNL1        0.0701
     21 H           3.7320   -1.8527    0.0000 H       1  UNL1        0.0786
     22 H           2.3100    1.3042    0.0000 H       1  UNL1        0.0251
     23 H           1.4631    1.0773    0.0000 H       1  UNL1        0.0251
     24 H           1.6900    0.2304    0.0000 H       1  UNL1        0.0251
     25 H           4.2690    2.0773    0.0000 H       1  UNL1        0.1079
@<TRIPOS>BOND
     1     1    10    1
     2     1    13    1
     3     2    13    2
     4     3    14    2
     5     4     5    1
     6     4    11    1
     7     4    18    1
     8     5     7    1
     9     5    12    1
    10     5    15    1
    11     6     7    2
    12     6     8    1
    13     6     9    1
    14     7    14    1
    15     8    10    1
    16     8    16    1
    17     8    17    1
    18     9    11    2
    19     9    13    1
    20    10    19    1
    21    10    20    1
    22    11    21    1
    23    12    22    1
    24    12    23    1
    25    12    24    1
    26    14    25    1
