@<TRIPOS>MOLECULE
IMPHY007521
 28 29 0 0 0
SMALL
GASTEIGER

@<TRIPOS>ATOM
      1 O           6.9054   -0.1786    0.0000 O.3     1  UNL1       -0.3645
      2 O           2.0000   -1.0446    0.0000 O.2     1  UNL1       -0.3010
      3 C           6.0388    0.3214    0.0000 C.3     1  UNL1        0.0985
      4 C           5.0878    0.6305    0.0000 C.3     1  UNL1       -0.0004
      5 C           6.0388   -0.6786    0.0000 C.3     1  UNL1        0.0889
      6 C           4.5000   -0.1786    0.0000 C.3     1  UNL1       -0.0244
      7 C           5.0878   -0.9876    0.0000 C.3     1  UNL1       -0.0201
      8 C           6.0388    1.3214    0.0000 C.3     1  UNL1       -0.0328
      9 C           4.2788    1.2182    0.0000 C.3     1  UNL1       -0.0568
     10 C           5.3968    1.5815    0.0000 C.3     1  UNL1       -0.0568
     11 C           3.5000   -0.1786    0.0000 C.3     1  UNL1        0.0063
     12 C           3.0000   -1.0446    0.0000 C.2     1  UNL1        0.1206
     13 H           6.2909   -1.2450    0.0000 H       1  UNL1        0.0625
     14 H           4.2185    0.3739    0.0000 H       1  UNL1        0.0312
     15 H           4.5508   -1.2976    0.0000 H       1  UNL1        0.0294
     16 H           5.3400   -1.5540    0.0000 H       1  UNL1        0.0294
     17 H           6.6588    1.3214    0.0000 H       1  UNL1        0.0258
     18 H           6.0388    1.9414    0.0000 H       1  UNL1        0.0258
     19 H           5.4188    1.3214    0.0000 H       1  UNL1        0.0258
     20 H           5.9865    1.3899    0.0000 H       1  UNL1        0.0236
     21 H           4.6432    1.7198    0.0000 H       1  UNL1        0.0236
     22 H           3.7772    1.5827    0.0000 H       1  UNL1        0.0236
     23 H           3.9143    0.7167    0.0000 H       1  UNL1        0.0236
     24 H           5.5884    2.1712    0.0000 H       1  UNL1        0.0236
     25 H           4.8072    1.7731    0.0000 H       1  UNL1        0.0236
     26 H           3.6077    0.4320    0.0000 H       1  UNL1        0.0342
     27 H           2.9174    0.0335    0.0000 H       1  UNL1        0.0342
     28 H           3.3100   -1.5815    0.0000 H       1  UNL1        0.1026
@<TRIPOS>BOND
     1     1     3    1
     2     1     5    1
     3     2    12    2
     4     3     4    1
     5     3     5    1
     6     3     8    1
     7     4     6    1
     8     4     9    1
     9     4    10    1
    10     5     7    1
    11     5    13    1
    12     6     7    1
    13     6    11    1
    14     6    14    1
    15     7    15    1
    16     7    16    1
    17     8    17    1
    18     8    18    1
    19     8    19    1
    20     9    21    1
    21     9    22    1
    22     9    23    1
    23    10    20    1
    24    10    24    1
    25    10    25    1
    26    11    12    1
    27    11    26    1
    28    11    27    1
    29    12    28    1
