@<TRIPOS>MOLECULE
IMPHY006117
 120 119 0 0 0
SMALL
GASTEIGER

@<TRIPOS>ATOM
      1 O           2.5369    0.4400    0.0000 O.3     1  UNL1       -0.3910
      2 C          19.8574    0.4400    0.0000 C.3     1  UNL1       -0.0286
      3 C          16.3933    0.4400    0.0000 C.3     1  UNL1       -0.0286
      4 C          17.2594   -0.0600    0.0000 C.3     1  UNL1       -0.0308
      5 C          20.7235   -0.0600    0.0000 C.3     1  UNL1       -0.0308
      6 C          23.3215    0.4400    0.0000 C.3     1  UNL1       -0.0286
      7 C          12.9292    0.4400    0.0000 C.3     1  UNL1       -0.0286
      8 C          13.7953   -0.0600    0.0000 C.3     1  UNL1       -0.0308
      9 C          18.9914   -0.0600    0.0000 C.2     1  UNL1       -0.0762
     10 C          15.5273   -0.0600    0.0000 C.2     1  UNL1       -0.0762
     11 C          24.1876   -0.0600    0.0000 C.3     1  UNL1       -0.0308
     12 C          22.4555   -0.0600    0.0000 C.2     1  UNL1       -0.0762
     13 C          12.0632   -0.0600    0.0000 C.2     1  UNL1       -0.0762
     14 C          26.7856    0.4400    0.0000 C.3     1  UNL1       -0.0286
     15 C          18.1254    0.4400    0.0000 C.2     1  UNL1       -0.0847
     16 C          21.5895    0.4400    0.0000 C.2     1  UNL1       -0.0847
     17 C          10.3312   -0.0600    0.0000 C.3     1  UNL1       -0.0308
     18 C          14.6613    0.4400    0.0000 C.2     1  UNL1       -0.0847
     19 C          25.9196   -0.0600    0.0000 C.2     1  UNL1       -0.0762
     20 C           9.4651    0.4400    0.0000 C.3     1  UNL1       -0.0286
     21 C          27.6517   -0.0600    0.0000 C.3     1  UNL1       -0.0308
     22 C          25.0536    0.4400    0.0000 C.2     1  UNL1       -0.0847
     23 C          11.1972    0.4400    0.0000 C.2     1  UNL1       -0.0847
     24 C           8.5991   -0.0600    0.0000 C.2     1  UNL1       -0.0762
     25 C          18.9914   -1.0600    0.0000 C.3     1  UNL1       -0.0438
     26 C          28.5177    0.4400    0.0000 C.2     1  UNL1       -0.0847
     27 C          15.5273   -1.0600    0.0000 C.3     1  UNL1       -0.0438
     28 C          29.3837   -0.0600    0.0000 C.2     1  UNL1       -0.0762
     29 C          22.4555   -1.0600    0.0000 C.3     1  UNL1       -0.0438
     30 C          30.2497    0.4400    0.0000 C.3     1  UNL1       -0.0286
     31 C           6.8671   -0.0600    0.0000 C.3     1  UNL1       -0.0308
     32 C          12.0632   -1.0600    0.0000 C.3     1  UNL1       -0.0438
     33 C           7.7331    0.4400    0.0000 C.2     1  UNL1       -0.0847
     34 C          25.9196   -1.0600    0.0000 C.3     1  UNL1       -0.0438
     35 C           6.0010    0.4400    0.0000 C.3     1  UNL1       -0.0285
     36 C          31.1158   -0.0600    0.0000 C.3     1  UNL1       -0.0308
     37 C           8.5991   -1.0600    0.0000 C.3     1  UNL1       -0.0438
     38 C          29.3837   -1.0600    0.0000 C.3     1  UNL1       -0.0438
     39 C           5.1350   -0.0600    0.0000 C.2     1  UNL1       -0.0741
     40 C          31.9818    0.4400    0.0000 C.2     1  UNL1       -0.0850
     41 C           5.1350   -1.0600    0.0000 C.3     1  UNL1       -0.0437
     42 C          32.8478   -0.0600    0.0000 C.2     1  UNL1       -0.0796
     43 C           4.2690    0.4400    0.0000 C.2     1  UNL1       -0.0600
     44 C           3.4030   -0.0600    0.0000 C.3     1  UNL1        0.0626
     45 C          33.7139    0.4400    0.0000 C.3     1  UNL1       -0.0440
     46 C          32.8478   -1.0600    0.0000 C.3     1  UNL1       -0.0440
     47 H          20.2560    0.9149    0.0000 H       1  UNL1        0.0313
     48 H          19.4589    0.9149    0.0000 H       1  UNL1        0.0313
     49 H          16.7919    0.9149    0.0000 H       1  UNL1        0.0313
     50 H          15.9948    0.9149    0.0000 H       1  UNL1        0.0313
     51 H          16.8608   -0.5349    0.0000 H       1  UNL1        0.0310
     52 H          17.6579   -0.5349    0.0000 H       1  UNL1        0.0310
     53 H          20.3249   -0.5349    0.0000 H       1  UNL1        0.0310
     54 H          21.1220   -0.5349    0.0000 H       1  UNL1        0.0310
     55 H          23.7201    0.9149    0.0000 H       1  UNL1        0.0313
     56 H          22.9230    0.9149    0.0000 H       1  UNL1        0.0313
     57 H          13.3278    0.9149    0.0000 H       1  UNL1        0.0313
     58 H          12.5307    0.9149    0.0000 H       1  UNL1        0.0313
     59 H          13.3967   -0.5349    0.0000 H       1  UNL1        0.0310
     60 H          14.1938   -0.5349    0.0000 H       1  UNL1        0.0310
     61 H          23.7890   -0.5349    0.0000 H       1  UNL1        0.0310
     62 H          24.5861   -0.5349    0.0000 H       1  UNL1        0.0310
     63 H          27.1842    0.9149    0.0000 H       1  UNL1        0.0313
     64 H          26.3871    0.9149    0.0000 H       1  UNL1        0.0313
     65 H          18.1254    1.0600    0.0000 H       1  UNL1        0.0572
     66 H          21.5895    1.0600    0.0000 H       1  UNL1        0.0572
     67 H           9.9326   -0.5349    0.0000 H       1  UNL1        0.0310
     68 H          10.7297   -0.5349    0.0000 H       1  UNL1        0.0310
     69 H          14.6613    1.0600    0.0000 H       1  UNL1        0.0572
     70 H           9.8637    0.9149    0.0000 H       1  UNL1        0.0313
     71 H           9.0666    0.9149    0.0000 H       1  UNL1        0.0313
     72 H          27.2531   -0.5349    0.0000 H       1  UNL1        0.0310
     73 H          28.0502   -0.5349    0.0000 H       1  UNL1        0.0310
     74 H          25.0536    1.0600    0.0000 H       1  UNL1        0.0572
     75 H          11.1972    1.0600    0.0000 H       1  UNL1        0.0572
     76 H          18.3714   -1.0600    0.0000 H       1  UNL1        0.0274
     77 H          18.9914   -1.6800    0.0000 H       1  UNL1        0.0274
     78 H          19.6114   -1.0600    0.0000 H       1  UNL1        0.0274
     79 H          28.5177    1.0600    0.0000 H       1  UNL1        0.0572
     80 H          14.9073   -1.0600    0.0000 H       1  UNL1        0.0274
     81 H          15.5273   -1.6800    0.0000 H       1  UNL1        0.0274
     82 H          16.1473   -1.0600    0.0000 H       1  UNL1        0.0274
     83 H          21.8355   -1.0600    0.0000 H       1  UNL1        0.0274
     84 H          22.4555   -1.6800    0.0000 H       1  UNL1        0.0274
     85 H          23.0755   -1.0600    0.0000 H       1  UNL1        0.0274
     86 H          30.6483    0.9149    0.0000 H       1  UNL1        0.0313
     87 H          29.8512    0.9149    0.0000 H       1  UNL1        0.0313
     88 H           6.4685   -0.5349    0.0000 H       1  UNL1        0.0310
     89 H           7.2656   -0.5349    0.0000 H       1  UNL1        0.0310
     90 H          11.4432   -1.0600    0.0000 H       1  UNL1        0.0274
     91 H          12.0632   -1.6800    0.0000 H       1  UNL1        0.0274
     92 H          12.6832   -1.0600    0.0000 H       1  UNL1        0.0274
     93 H           7.7331    1.0600    0.0000 H       1  UNL1        0.0572
     94 H          25.2996   -1.0600    0.0000 H       1  UNL1        0.0274
     95 H          25.9196   -1.6800    0.0000 H       1  UNL1        0.0274
     96 H          26.5396   -1.0600    0.0000 H       1  UNL1        0.0274
     97 H           6.3996    0.9149    0.0000 H       1  UNL1        0.0313
     98 H           5.6025    0.9149    0.0000 H       1  UNL1        0.0313
     99 H          30.7172   -0.5349    0.0000 H       1  UNL1        0.0310
    100 H          31.5143   -0.5349    0.0000 H       1  UNL1        0.0310
    101 H           7.9791   -1.0600    0.0000 H       1  UNL1        0.0274
    102 H           8.5991   -1.6800    0.0000 H       1  UNL1        0.0274
    103 H           9.2191   -1.0600    0.0000 H       1  UNL1        0.0274
    104 H          28.7637   -1.0600    0.0000 H       1  UNL1        0.0274
    105 H          29.3837   -1.6800    0.0000 H       1  UNL1        0.0274
    106 H          30.0037   -1.0600    0.0000 H       1  UNL1        0.0274
    107 H          31.9818    1.0600    0.0000 H       1  UNL1        0.0572
    108 H           4.5150   -1.0600    0.0000 H       1  UNL1        0.0274
    109 H           5.1350   -1.6800    0.0000 H       1  UNL1        0.0274
    110 H           5.7550   -1.0600    0.0000 H       1  UNL1        0.0274
    111 H           4.2690    1.0600    0.0000 H       1  UNL1        0.0594
    112 H           3.0044   -0.5349    0.0000 H       1  UNL1        0.0601
    113 H           3.8015   -0.5349    0.0000 H       1  UNL1        0.0601
    114 H          32.2278   -1.0600    0.0000 H       1  UNL1        0.0274
    115 H          32.8478   -1.6800    0.0000 H       1  UNL1        0.0274
    116 H          33.4678   -1.0600    0.0000 H       1  UNL1        0.0274
    117 H          34.0238   -0.0969    0.0000 H       1  UNL1        0.0274
    118 H          34.2508    0.7500    0.0000 H       1  UNL1        0.0274
    119 H          33.4039    0.9769    0.0000 H       1  UNL1        0.0274
    120 H           2.0000    0.1300    0.0000 H       1  UNL1        0.2098
@<TRIPOS>BOND
     1     1    44    1
     2     1   120    1
     3     2     5    1
     4     2     9    1
     5     2    47    1
     6     2    48    1
     7     3     4    1
     8     3    10    1
     9     3    49    1
    10     3    50    1
    11     4    15    1
    12     4    51    1
    13     4    52    1
    14     5    16    1
    15     5    53    1
    16     5    54    1
    17     6    11    1
    18     6    12    1
    19     6    55    1
    20     6    56    1
    21     7     8    1
    22     7    13    1
    23     7    57    1
    24     7    58    1
    25     8    18    1
    26     8    59    1
    27     8    60    1
    28     9    15    2
    29     9    25    1
    30    10    18    2
    31    10    27    1
    32    11    22    1
    33    11    61    1
    34    11    62    1
    35    12    16    2
    36    12    29    1
    37    13    23    2
    38    13    32    1
    39    14    19    1
    40    14    21    1
    41    14    63    1
    42    14    64    1
    43    15    65    1
    44    16    66    1
    45    17    20    1
    46    17    23    1
    47    17    67    1
    48    17    68    1
    49    18    69    1
    50    19    22    2
    51    19    34    1
    52    20    24    1
    53    20    70    1
    54    20    71    1
    55    21    26    1
    56    21    72    1
    57    21    73    1
    58    22    74    1
    59    23    75    1
    60    24    33    2
    61    24    37    1
    62    25    76    1
    63    25    77    1
    64    25    78    1
    65    26    28    2
    66    26    79    1
    67    27    80    1
    68    27    81    1
    69    27    82    1
    70    28    30    1
    71    28    38    1
    72    29    83    1
    73    29    84    1
    74    29    85    1
    75    30    36    1
    76    30    86    1
    77    30    87    1
    78    31    33    1
    79    31    35    1
    80    31    88    1
    81    31    89    1
    82    32    90    1
    83    32    91    1
    84    32    92    1
    85    33    93    1
    86    34    94    1
    87    34    95    1
    88    34    96    1
    89    35    39    1
    90    35    97    1
    91    35    98    1
    92    36    40    1
    93    36    99    1
    94    36   100    1
    95    37   101    1
    96    37   102    1
    97    37   103    1
    98    38   104    1
    99    38   105    1
   100    38   106    1
   101    39    41    1
   102    39    43    2
   103    40    42    2
   104    40   107    1
   105    41   108    1
   106    41   109    1
   107    41   110    1
   108    42    45    1
   109    42    46    1
   110    43    44    1
   111    43   111    1
   112    44   112    1
   113    44   113    1
   114    45   117    1
   115    45   118    1
   116    45   119    1
   117    46   114    1
   118    46   115    1
   119    46   116    1
