@<TRIPOS>MOLECULE
IMPHY010075
 46 48 0 0 0
SMALL
GASTEIGER

@<TRIPOS>ATOM
      1 O           2.5369    1.1429    0.0000 O.3     1  UNL1       -0.3944
      2 O           8.6651    2.6671    0.0000 O.3     1  UNL1       -0.4914
      3 O           8.6651    0.6188    0.0000 O.3     1  UNL1       -0.5033
      4 O           3.4030   -2.3571    0.0000 O.3     1  UNL1       -0.4914
      5 O           3.4030    3.6429    0.0000 O.2     1  UNL1       -0.2960
      6 O           5.1350   -3.3571    0.0000 O.3     1  UNL1       -0.5033
      7 C           5.1350    0.6429    0.0000 C.3     1  UNL1        0.0190
      8 C           4.2690    1.1429    0.0000 C.3     1  UNL1        0.0212
      9 C           6.0010    1.1429    0.0000 C.ar    1  UNL1       -0.0285
     10 C           4.2690    2.1429    0.0000 C.2     1  UNL1       -0.0015
     11 C           5.1350   -0.3571    0.0000 C.ar    1  UNL1       -0.0356
     12 C           6.0010    2.1429    0.0000 C.ar    1  UNL1       -0.0172
     13 C           3.4030    0.6429    0.0000 C.3     1  UNL1        0.0520
     14 C           5.1350    2.6429    0.0000 C.2     1  UNL1       -0.0476
     15 C           6.8950    0.6083    0.0000 C.ar    1  UNL1       -0.0122
     16 C           6.8950    2.6776    0.0000 C.ar    1  UNL1       -0.0089
     17 C           4.2690   -0.8571    0.0000 C.ar    1  UNL1       -0.0125
     18 C           6.0010   -0.8571    0.0000 C.ar    1  UNL1       -0.0543
     19 C           7.8010    1.1221    0.0000 C.ar    1  UNL1        0.1588
     20 C           3.4030    2.6429    0.0000 C.2     1  UNL1        0.1466
     21 C           7.8010    2.1637    0.0000 C.ar    1  UNL1        0.1618
     22 C           4.2690   -1.8571    0.0000 C.ar    1  UNL1        0.1615
     23 C           6.0010   -1.8571    0.0000 C.ar    1  UNL1       -0.0162
     24 C           5.1350   -2.3571    0.0000 C.ar    1  UNL1        0.1585
     25 C           8.6613    3.6671    0.0000 C.3     1  UNL1        0.0790
     26 C           3.4030   -3.3571    0.0000 C.3     1  UNL1        0.0790
     27 H           4.5981    0.3329    0.0000 H       1  UNL1        0.0404
     28 H           3.7320    1.4529    0.0000 H       1  UNL1        0.0381
     29 H           3.0044    0.1680    0.0000 H       1  UNL1        0.0563
     30 H           3.8015    0.1680    0.0000 H       1  UNL1        0.0563
     31 H           5.1350    3.2629    0.0000 H       1  UNL1        0.0627
     32 H           6.8878   -0.0117    0.0000 H       1  UNL1        0.0658
     33 H           6.8878    3.2976    0.0000 H       1  UNL1        0.0661
     34 H           3.7320   -0.5471    0.0000 H       1  UNL1        0.0658
     35 H           6.5380   -0.5471    0.0000 H       1  UNL1        0.0622
     36 H           2.8660    2.3329    0.0000 H       1  UNL1        0.1078
     37 H           6.5380   -2.1671    0.0000 H       1  UNL1        0.0655
     38 H           2.0000    0.8329    0.0000 H       1  UNL1        0.2094
     39 H           9.2033    0.9267    0.0000 H       1  UNL1        0.2923
     40 H           5.6720   -3.6671    0.0000 H       1  UNL1        0.2923
     41 H           9.2813    3.6695    0.0000 H       1  UNL1        0.0660
     42 H           8.6589    4.2871    0.0000 H       1  UNL1        0.0660
     43 H           8.0413    3.6647    0.0000 H       1  UNL1        0.0660
     44 H           2.7830   -3.3571    0.0000 H       1  UNL1        0.0660
     45 H           3.4030   -3.9771    0.0000 H       1  UNL1        0.0660
     46 H           4.0230   -3.3571    0.0000 H       1  UNL1        0.0660
@<TRIPOS>BOND
     1     1    13    1
     2     1    38    1
     3     2    21    1
     4     2    25    1
     5     3    19    1
     6     3    39    1
     7     4    22    1
     8     4    26    1
     9     5    20    2
    10     6    24    1
    11     6    40    1
    12     7     8    1
    13     7     9    1
    14     7    11    1
    15     7    27    1
    16     8    10    1
    17     8    13    1
    18     8    28    1
    19     9    12   ar
    20     9    15   ar
    21    10    14    2
    22    10    20    1
    23    11    17   ar
    24    11    18   ar
    25    12    14    1
    26    12    16   ar
    27    13    29    1
    28    13    30    1
    29    14    31    1
    30    15    19   ar
    31    15    32    1
    32    16    21   ar
    33    16    33    1
    34    17    22   ar
    35    17    34    1
    36    18    23   ar
    37    18    35    1
    38    19    21   ar
    39    20    36    1
    40    22    24   ar
    41    23    24   ar
    42    23    37    1
    43    25    41    1
    44    25    42    1
    45    25    43    1
    46    26    44    1
    47    26    45    1
    48    26    46    1
