@<TRIPOS>MOLECULE
IMPHY004761
 60 63 0 0 0
SMALL
GASTEIGER

@<TRIPOS>ATOM
      1 O           5.1350   -0.4050    0.0000 O.3     1  UNL1       -0.3598
      2 O           2.5369    0.0950    0.0000 O.3     1  UNL1       -0.3862
      3 O           2.5369   -1.9050    0.0000 O.3     1  UNL1       -0.3865
      4 O           4.2690   -2.9050    0.0000 O.3     1  UNL1       -0.3865
      5 O           6.0010   -2.9050    0.0000 O.3     1  UNL1       -0.4621
      6 O           6.0290    1.0603    0.0000 O.2     1  UNL1       -0.4540
      7 O           2.5369    1.0950    0.0000 O.3     1  UNL1       -0.5062
      8 O           4.2690    4.0950    0.0000 O.3     1  UNL1       -0.5058
      9 O           6.0174    4.1296    0.0000 O.2     1  UNL1       -0.2869
     10 O           7.7331   -2.9050    0.0000 O.2     1  UNL1       -0.2512
     11 O           8.6555   -1.4325    0.0000 O.3     1  UNL1       -0.4914
     12 O          10.3914   -0.4392    0.0000 O.3     1  UNL1       -0.5033
     13 C           3.4030   -0.4050    0.0000 C.3     1  UNL1        0.1139
     14 C           3.4030   -1.4050    0.0000 C.3     1  UNL1        0.1121
     15 C           4.2690    0.0950    0.0000 C.3     1  UNL1        0.1194
     16 C           4.2690   -1.9050    0.0000 C.3     1  UNL1        0.1128
     17 C           5.1350   -1.4050    0.0000 C.3     1  UNL1        0.1218
     18 C           4.2690    1.0950    0.0000 C.ar    1  UNL1        0.0682
     19 C           6.0010   -1.9050    0.0000 C.3     1  UNL1        0.1211
     20 C           5.1350    1.5950    0.0000 C.ar    1  UNL1        0.1520
     21 C           3.4030    1.5950    0.0000 C.ar    1  UNL1        0.1296
     22 C           5.1350    2.5950    0.0000 C.ar    1  UNL1        0.1058
     23 C           3.4030    2.5950    0.0000 C.ar    1  UNL1        0.0226
     24 C           4.2690    3.0950    0.0000 C.ar    1  UNL1        0.1347
     25 C           6.0290    3.1297    0.0000 C.ar    1  UNL1        0.1966
     26 C           6.9350    1.5742    0.0000 C.ar    1  UNL1        0.1394
     27 C           6.9350    2.6158    0.0000 C.ar    1  UNL1        0.0288
     28 C           6.8671   -3.4050    0.0000 C.2     1  UNL1        0.3040
     29 C           7.7991    1.0708    0.0000 C.ar    1  UNL1        0.0211
     30 C           6.8671   -4.4050    0.0000 C.3     1  UNL1        0.0332
     31 C           7.7953    0.0709    0.0000 C.ar    1  UNL1       -0.0057
     32 C           8.6671    1.5675    0.0000 C.ar    1  UNL1       -0.0474
     33 C           8.6594   -0.4325    0.0000 C.ar    1  UNL1        0.1619
     34 C           9.5312    1.0642    0.0000 C.ar    1  UNL1       -0.0159
     35 C           9.5273    0.0642    0.0000 C.ar    1  UNL1        0.1585
     36 C           9.5196   -1.9358    0.0000 C.3     1  UNL1        0.0790
     37 H           3.4030    0.2150    0.0000 H       1  UNL1        0.0649
     38 H           3.4030   -2.0250    0.0000 H       1  UNL1        0.0647
     39 H           5.0051    0.5200    0.0000 H       1  UNL1        0.0676
     40 H           4.8059   -2.2150    0.0000 H       1  UNL1        0.0647
     41 H           5.6720   -1.0950    0.0000 H       1  UNL1        0.0657
     42 H           6.6116   -2.0127    0.0000 H       1  UNL1        0.0724
     43 H           6.2131   -1.3224    0.0000 H       1  UNL1        0.0724
     44 H           2.0000   -0.2150    0.0000 H       1  UNL1        0.2100
     45 H           2.5369   -2.5250    0.0000 H       1  UNL1        0.2100
     46 H           3.7320   -3.2150    0.0000 H       1  UNL1        0.2100
     47 H           2.8660    2.9050    0.0000 H       1  UNL1        0.0691
     48 H           7.4708    2.9279    0.0000 H       1  UNL1        0.0693
     49 H           2.0000    1.4050    0.0000 H       1  UNL1        0.2922
     50 H           3.7320    4.4050    0.0000 H       1  UNL1        0.2922
     51 H           6.2471   -4.4050    0.0000 H       1  UNL1        0.0342
     52 H           6.8671   -5.0250    0.0000 H       1  UNL1        0.0342
     53 H           7.4871   -4.4050    0.0000 H       1  UNL1        0.0342
     54 H           7.2571   -0.2371    0.0000 H       1  UNL1        0.0662
     55 H           8.6694    2.1875    0.0000 H       1  UNL1        0.0626
     56 H          10.0693    1.3721    0.0000 H       1  UNL1        0.0655
     57 H          10.9295   -0.1312    0.0000 H       1  UNL1        0.2923
     58 H           9.2075   -2.4715    0.0000 H       1  UNL1        0.0660
     59 H          10.0553   -2.2479    0.0000 H       1  UNL1        0.0660
     60 H           9.8316   -1.4001    0.0000 H       1  UNL1        0.0660
@<TRIPOS>BOND
     1     1    15    1
     2     1    17    1
     3     2    13    1
     4     2    44    1
     5     3    14    1
     6     3    45    1
     7    16     4    1
     8     4    46    1
     9     5    19    1
    10     5    28    1
    11     6    20   ar
    12     6    26   ar
    13     7    21    1
    14     7    49    1
    15     8    24    1
    16     8    50    1
    17     9    25    2
    18    10    28    2
    19    11    33    1
    20    11    36    1
    21    12    35    1
    22    12    57    1
    23    13    14    1
    24    13    15    1
    25    13    37    1
    26    14    16    1
    27    14    38    1
    28    15    18    1
    29    15    39    1
    30    16    17    1
    31    16    40    1
    32    17    19    1
    33    17    41    1
    34    18    20   ar
    35    18    21   ar
    36    19    42    1
    37    19    43    1
    38    20    22   ar
    39    21    23   ar
    40    22    24   ar
    41    22    25   ar
    42    23    24   ar
    43    23    47    1
    44    25    27   ar
    45    26    27   ar
    46    26    29    1
    47    27    48    1
    48    28    30    1
    49    29    31   ar
    50    29    32   ar
    51    30    51    1
    52    30    52    1
    53    30    53    1
    54    31    33   ar
    55    31    54    1
    56    32    34   ar
    57    32    55    1
    58    33    35   ar
    59    34    35   ar
    60    34    56    1
    61    36    58    1
    62    36    59    1
    63    36    60    1
