@<TRIPOS>MOLECULE
IMPHY002878
 51 52 0 0 0
SMALL
GASTEIGER

@<TRIPOS>ATOM
      1 O           5.1343    1.8371    0.0000 O.3     1  UNL1       -0.3886
      2 O           2.5381    2.3471    0.0000 O.3     1  UNL1       -0.3866
      3 O           7.7926   -1.6837    0.0000 O.2     1  UNL1       -0.4218
      4 O           4.2625   -1.7079    0.0000 O.3     1  UNL1       -0.4947
      5 O           9.5246   -1.6837    0.0000 O.2     1  UNL1       -0.2449
      6 C           4.2663    1.3404    0.0000 C.3     1  UNL1        0.0874
      7 C           3.4022    1.8438    0.0000 C.3     1  UNL1        0.0865
      8 C           4.2625    0.3404    0.0000 C.3     1  UNL1        0.0046
      9 C           5.1266   -0.1629    0.0000 C.ar    1  UNL1       -0.0024
     10 C           9.5246    0.3163    0.0000 C.3     1  UNL1        0.0146
     11 C           8.6586   -0.1837    0.0000 C.ar    1  UNL1        0.0470
     12 C           6.9266   -0.1837    0.0000 C.ar    1  UNL1        0.0184
     13 C           3.9056    2.7079    0.0000 C.3     1  UNL1       -0.0339
     14 C           2.8989    0.9797    0.0000 C.3     1  UNL1       -0.0339
     15 C           6.0326    0.3509    0.0000 C.ar    1  UNL1       -0.0443
     16 C           5.1266   -1.2045    0.0000 C.ar    1  UNL1        0.1269
     17 C           7.7926    0.3163    0.0000 C.ar    1  UNL1       -0.0403
     18 C           6.9266   -1.1837    0.0000 C.ar    1  UNL1        0.1426
     19 C           9.0246    1.1823    0.0000 C.3     1  UNL1       -0.0521
     20 C          10.0246   -0.5497    0.0000 C.3     1  UNL1       -0.0521
     21 C           6.0326   -1.7184    0.0000 C.ar    1  UNL1        0.0233
     22 C           8.6586   -1.1837    0.0000 C.ar    1  UNL1        0.3413
     23 C          10.3907    0.8163    0.0000 C.2     1  UNL1       -0.0809
     24 C          10.3907    1.8163    0.0000 C.2     1  UNL1       -0.1018
     25 C           4.2663   -2.7079    0.0000 C.3     1  UNL1        0.0788
     26 H           4.8021    1.0284    0.0000 H       1  UNL1        0.0625
     27 H           3.6523    0.4505    0.0000 H       1  UNL1        0.0340
     28 H           4.0482   -0.2414    0.0000 H       1  UNL1        0.0340
     29 H           2.3632    1.2917    0.0000 H       1  UNL1        0.0258
     30 H           2.5868    0.4439    0.0000 H       1  UNL1        0.0258
     31 H           3.4346    0.6676    0.0000 H       1  UNL1        0.0258
     32 H           4.4413    2.3958    0.0000 H       1  UNL1        0.0258
     33 H           4.2176    3.2436    0.0000 H       1  UNL1        0.0258
     34 H           3.3698    3.0199    0.0000 H       1  UNL1        0.0258
     35 H           6.0398    0.9709    0.0000 H       1  UNL1        0.0628
     36 H           7.7926    0.9363    0.0000 H       1  UNL1        0.0630
     37 H           9.4877   -0.8597    0.0000 H       1  UNL1        0.0241
     38 H           9.5616    1.4923    0.0000 H       1  UNL1        0.0241
     39 H           8.7146    1.7192    0.0000 H       1  UNL1        0.0241
     40 H           8.4877    0.8723    0.0000 H       1  UNL1        0.0241
     41 H          10.3346   -1.0867    0.0000 H       1  UNL1        0.0241
     42 H          10.5616   -0.2397    0.0000 H       1  UNL1        0.0241
     43 H           6.0398   -2.3383    0.0000 H       1  UNL1        0.0691
     44 H           5.1367    2.4571    0.0000 H       1  UNL1        0.2099
     45 H           2.0000    2.0392    0.0000 H       1  UNL1        0.2102
     46 H          10.9276    0.5063    0.0000 H       1  UNL1        0.0575
     47 H          10.9276    2.1263    0.0000 H       1  UNL1        0.0532
     48 H           9.8537    2.1263    0.0000 H       1  UNL1        0.0532
     49 H           3.6463   -2.7102    0.0000 H       1  UNL1        0.0660
     50 H           4.2687   -3.3278    0.0000 H       1  UNL1        0.0660
     51 H           4.8863   -2.7055    0.0000 H       1  UNL1        0.0660
@<TRIPOS>BOND
     1     1     6    1
     2     1    44    1
     3     2     7    1
     4     2    45    1
     5     3    18   ar
     6     3    22   ar
     7     4    16    1
     8     4    25    1
     9     5    22    2
    10     6     7    1
    11     6     8    1
    12     6    26    1
    13     7    13    1
    14     7    14    1
    15     8     9    1
    16     8    27    1
    17     8    28    1
    18     9    15   ar
    19     9    16   ar
    20    10    11    1
    21    10    19    1
    22    10    20    1
    23    10    23    1
    24    11    17   ar
    25    11    22   ar
    26    12    15   ar
    27    12    17   ar
    28    12    18   ar
    29    13    32    1
    30    13    33    1
    31    13    34    1
    32    14    29    1
    33    14    30    1
    34    14    31    1
    35    15    35    1
    36    16    21   ar
    37    17    36    1
    38    18    21   ar
    39    19    38    1
    40    19    39    1
    41    19    40    1
    42    20    37    1
    43    20    41    1
    44    20    42    1
    45    21    43    1
    46    23    24    2
    47    23    46    1
    48    24    47    1
    49    24    48    1
    50    25    49    1
    51    25    50    1
    52    25    51    1
