@<TRIPOS>MOLECULE
IMPHY005641
 28 29 0 0 0
SMALL
GASTEIGER

@<TRIPOS>ATOM
      1 O           7.2641   -0.3246    0.0000 O.2     1  UNL1       -0.4267
      2 O           2.8680    1.1995    0.0000 O.3     1  UNL1       -0.4950
      3 O           4.6497   -1.8592    0.0000 O.3     1  UNL1       -0.5058
      4 O           6.3981   -1.8246    0.0000 O.2     1  UNL1       -0.2444
      5 C           5.5320    0.6754    0.0000 C.ar    1  UNL1        0.0020
      6 C           6.3981    1.1754    0.0000 C.ar    1  UNL1       -0.0044
      7 C           5.5320   -0.3246    0.0000 C.ar    1  UNL1        0.1083
      8 C           7.2641    0.6754    0.0000 C.ar    1  UNL1        0.1095
      9 C           4.6381    1.2100    0.0000 C.ar    1  UNL1       -0.0114
     10 C           4.6381   -0.8593    0.0000 C.ar    1  UNL1        0.1349
     11 C           3.7320    0.6962    0.0000 C.ar    1  UNL1        0.1242
     12 C           6.3981   -0.8246    0.0000 C.ar    1  UNL1        0.3483
     13 C           6.3981    2.1754    0.0000 C.3     1  UNL1       -0.0360
     14 C           3.7320   -0.3454    0.0000 C.ar    1  UNL1        0.0224
     15 C           8.1301    1.1754    0.0000 C.3     1  UNL1       -0.0060
     16 C           2.0000    0.7029    0.0000 C.3     1  UNL1        0.0788
     17 H           4.6453    1.8300    0.0000 H       1  UNL1        0.0660
     18 H           7.0181    2.1754    0.0000 H       1  UNL1        0.0279
     19 H           6.3981    2.7954    0.0000 H       1  UNL1        0.0279
     20 H           5.7781    2.1754    0.0000 H       1  UNL1        0.0279
     21 H           3.1963   -0.6575    0.0000 H       1  UNL1        0.0691
     22 H           8.4401    0.6385    0.0000 H       1  UNL1        0.0308
     23 H           8.6671    1.4854    0.0000 H       1  UNL1        0.0308
     24 H           7.8201    1.7123    0.0000 H       1  UNL1        0.0308
     25 H           4.1164   -2.1754    0.0000 H       1  UNL1        0.2922
     26 H           1.6921    1.2410    0.0000 H       1  UNL1        0.0660
     27 H           1.4619    0.3950    0.0000 H       1  UNL1        0.0660
     28 H           2.3079    0.1648    0.0000 H       1  UNL1        0.0660
@<TRIPOS>BOND
     1     1     8   ar
     2     1    12   ar
     3     2    11    1
     4     2    16    1
     5     3    10    1
     6     3    25    1
     7     4    12    2
     8     5     6   ar
     9     5     7   ar
    10     5     9   ar
    11     6     8   ar
    12     6    13    1
    13     7    10   ar
    14     7    12   ar
    15     8    15    1
    16     9    11   ar
    17     9    17    1
    18    10    14   ar
    19    11    14   ar
    20    13    18    1
    21    13    19    1
    22    13    20    1
    23    14    21    1
    24    15    22    1
    25    15    23    1
    26    15    24    1
    27    16    26    1
    28    16    27    1
    29    16    28    1
