@<TRIPOS>MOLECULE
IMPHY001276
 87 91 0 0 0
SMALL
GASTEIGER

@<TRIPOS>ATOM
      1 O           7.0628    1.0320    0.0000 O.3     1  UNL1       -0.3915
      2 O           9.7749    1.5952    0.0000 O.3     1  UNL1       -0.3673
      3 O           4.3792   -0.4110    0.0000 O.3     1  UNL1       -0.3911
      4 O           2.5357   -3.5204    0.0000 O.3     1  UNL1       -0.3912
      5 O           9.8098    4.3063    0.0000 O.3     1  UNL1       -0.3866
      6 C           7.0628   -1.9680    0.0000 C.3     1  UNL1       -0.0228
      7 C           7.9288   -1.4680    0.0000 C.3     1  UNL1       -0.0209
      8 C           6.1968   -1.4680    0.0000 C.3     1  UNL1       -0.0248
      9 C           5.2868   -1.9749    0.0000 C.3     1  UNL1        0.0008
     10 C           7.9288   -0.4680    0.0000 C.3     1  UNL1       -0.0036
     11 C           5.2787   -3.0165    0.0000 C.3     1  UNL1       -0.0255
     12 C           8.8750   -0.1633    0.0000 C.3     1  UNL1       -0.0064
     13 C           7.0789   -3.0095    0.0000 C.3     1  UNL1       -0.0466
     14 C           6.1968   -0.4680    0.0000 C.3     1  UNL1       -0.0226
     15 C           8.8750   -1.7728    0.0000 C.3     1  UNL1       -0.0464
     16 C           7.0628    0.0320    0.0000 C.3     1  UNL1        0.0592
     17 C           6.1808   -3.5373    0.0000 C.3     1  UNL1       -0.0485
     18 C           9.4586   -0.9680    0.0000 C.3     1  UNL1       -0.0467
     19 C           4.3433   -3.5662    0.0000 C.3     1  UNL1       -0.0054
     20 C           4.3599   -1.4108    0.0000 C.3     1  UNL1        0.0635
     21 C           7.7056   -2.7341    0.0000 C.3     1  UNL1       -0.0588
     22 C           8.2709   -2.4077    0.0000 C.3     1  UNL1       -0.0587
     23 C           9.1857    0.7872    0.0000 C.3     1  UNL1        0.0705
     24 C           5.2945   -0.9749    0.0000 C.3     1  UNL1       -0.0567
     25 C           3.4037   -3.0237    0.0000 C.3     1  UNL1        0.0630
     26 C           3.4120   -1.9387    0.0000 C.3     1  UNL1        0.0003
     27 C           8.2352    1.0979    0.0000 C.3     1  UNL1       -0.0213
     28 C           3.8467   -4.4342    0.0000 C.3     1  UNL1       -0.0572
     29 C           4.8466   -4.4303    0.0000 C.3     1  UNL1       -0.0572
     30 C           9.9937    0.1980    0.0000 C.3     1  UNL1       -0.0355
     31 C           8.2369    2.0979    0.0000 C.3     1  UNL1       -0.0213
     32 C           9.1885    2.4052    0.0000 C.3     1  UNL1        0.0876
     33 C           9.4992    3.3558    0.0000 C.3     1  UNL1        0.0865
     34 C          10.4497    3.0451    0.0000 C.3     1  UNL1       -0.0339
     35 C           8.5486    3.6664    0.0000 C.3     1  UNL1       -0.0339
     36 H           6.9329   -1.0430    0.0000 H       1  UNL1        0.0313
     37 H           8.0188    0.3772    0.0000 H       1  UNL1        0.0335
     38 H           5.2820   -3.8665    0.0000 H       1  UNL1        0.0313
     39 H           9.7148   -0.0314    0.0000 H       1  UNL1        0.0332
     40 H           7.2969   -3.5899    0.0000 H       1  UNL1        0.0271
     41 H           7.6880   -2.8940    0.0000 H       1  UNL1        0.0271
     42 H           5.9847    0.1146    0.0000 H       1  UNL1        0.0293
     43 H           5.5862   -0.5757    0.0000 H       1  UNL1        0.0293
     44 H           8.6240   -2.3397    0.0000 H       1  UNL1        0.0271
     45 H           9.4124   -2.0820    0.0000 H       1  UNL1        0.0271
     46 H           7.5997    0.3420    0.0000 H       1  UNL1        0.0596
     47 H           5.7835   -4.0133    0.0000 H       1  UNL1        0.0268
     48 H           6.5818   -4.0102    0.0000 H       1  UNL1        0.0268
     49 H           9.9195   -1.3828    0.0000 H       1  UNL1        0.0269
     50 H           9.9195   -0.5533    0.0000 H       1  UNL1        0.0269
     51 H           3.8284   -1.0915    0.0000 H       1  UNL1        0.0600
     52 H           7.2306   -3.1326    0.0000 H       1  UNL1        0.0235
     53 H           8.1041   -3.2090    0.0000 H       1  UNL1        0.0235
     54 H           8.1805   -2.3356    0.0000 H       1  UNL1        0.0235
     55 H           7.6884   -2.6198    0.0000 H       1  UNL1        0.0235
     56 H           8.4830   -2.9903    0.0000 H       1  UNL1        0.0235
     57 H           8.8535   -2.1956    0.0000 H       1  UNL1        0.0235
     58 H           5.9145   -0.9797    0.0000 H       1  UNL1        0.0236
     59 H           5.2993   -0.3549    0.0000 H       1  UNL1        0.0236
     60 H           4.6745   -0.9701    0.0000 H       1  UNL1        0.0236
     61 H           3.4025   -3.6437    0.0000 H       1  UNL1        0.0599
     62 H           3.2075   -1.3535    0.0000 H       1  UNL1        0.0315
     63 H           2.8004   -2.0401    0.0000 H       1  UNL1        0.0315
     64 H           7.6187    1.1638    0.0000 H       1  UNL1        0.0294
     65 H           8.1052    0.4917    0.0000 H       1  UNL1        0.0294
     66 H           4.3109   -4.7424    0.0000 H       1  UNL1        0.0236
     67 H           5.1587   -4.9660    0.0000 H       1  UNL1        0.0236
     68 H           5.3824   -4.1182    0.0000 H       1  UNL1        0.0236
     69 H           3.3085   -4.1262    0.0000 H       1  UNL1        0.0236
     70 H           3.5387   -4.9723    0.0000 H       1  UNL1        0.0236
     71 H           4.3848   -4.7421    0.0000 H       1  UNL1        0.0236
     72 H           6.5259    1.3420    0.0000 H       1  UNL1        0.2098
     73 H           9.6284   -0.3029    0.0000 H       1  UNL1        0.0257
     74 H          10.4947   -0.1673    0.0000 H       1  UNL1        0.0257
     75 H          10.3590    0.6990    0.0000 H       1  UNL1        0.0257
     76 H           8.1091    2.7046    0.0000 H       1  UNL1        0.0292
     77 H           7.6202    2.0341    0.0000 H       1  UNL1        0.0292
     78 H          10.0283    2.5368    0.0000 H       1  UNL1        0.0625
     79 H           3.8483   -0.0907    0.0000 H       1  UNL1        0.2098
     80 H           2.0000   -3.2083    0.0000 H       1  UNL1        0.2098
     81 H           8.7413    4.2558    0.0000 H       1  UNL1        0.0258
     82 H           7.9593    3.8590    0.0000 H       1  UNL1        0.0258
     83 H           8.3560    3.0771    0.0000 H       1  UNL1        0.0258
     84 H          10.2571    2.4558    0.0000 H       1  UNL1        0.0258
     85 H          11.0390    2.8525    0.0000 H       1  UNL1        0.0258
     86 H          10.6423    3.6344    0.0000 H       1  UNL1        0.0258
     87 H          10.4165    4.4342    0.0000 H       1  UNL1        0.2102
@<TRIPOS>BOND
     1    16     1    1
     2     1    72    1
     3     2    23    1
     4     2    32    1
     5    20     3    1
     6     3    79    1
     7    25     4    1
     8     4    80    1
     9     5    33    1
    10     5    87    1
    11     6     7    1
    12     6     8    1
    13     6    13    1
    14     6    21    1
    15     7    10    1
    16     7    15    1
    17     7    22    1
    18     8     9    1
    19     8    14    1
    20     8    36    1
    21     9    11    1
    22     9    20    1
    23     9    24    1
    24    10    12    1
    25    10    16    1
    26    10    37    1
    27    11    17    1
    28    11    19    1
    29    11    38    1
    30    12    18    1
    31    12    23    1
    32    12    39    1
    33    13    17    1
    34    13    40    1
    35    13    41    1
    36    14    16    1
    37    14    42    1
    38    14    43    1
    39    15    18    1
    40    15    44    1
    41    15    45    1
    42    16    46    1
    43    17    47    1
    44    17    48    1
    45    18    49    1
    46    18    50    1
    47    19    25    1
    48    19    28    1
    49    19    29    1
    50    20    26    1
    51    20    51    1
    52    21    52    1
    53    21    53    1
    54    21    54    1
    55    22    55    1
    56    22    56    1
    57    22    57    1
    58    23    27    1
    59    23    30    1
    60    24    58    1
    61    24    59    1
    62    24    60    1
    63    25    26    1
    64    25    61    1
    65    26    62    1
    66    26    63    1
    67    27    31    1
    68    27    64    1
    69    27    65    1
    70    28    69    1
    71    28    70    1
    72    28    71    1
    73    29    66    1
    74    29    67    1
    75    29    68    1
    76    30    73    1
    77    30    74    1
    78    30    75    1
    79    31    32    1
    80    31    76    1
    81    31    77    1
    82    32    33    1
    83    32    78    1
    84    33    34    1
    85    33    35    1
    86    34    84    1
    87    34    85    1
    88    34    86    1
    89    35    81    1
    90    35    82    1
    91    35    83    1
