@<TRIPOS>MOLECULE
IMPHY012006
 51 55 0 0 0
SMALL
GASTEIGER

@<TRIPOS>ATOM
      1 O           5.7497    3.0374    0.0000 O.3     1  UNL1       -0.4641
      2 O           7.1333    1.9234    0.0000 O.2     1  UNL1       -0.2505
      3 O           3.4519   -2.6190    0.0000 O.3     1  UNL1       -0.4526
      4 O           2.0000   -1.7807    0.0000 O.3     1  UNL1       -0.4526
      5 O           8.8819    0.4626    0.0000 O.3     1  UNL1       -0.4913
      6 O           7.1498   -2.5374    0.0000 O.3     1  UNL1       -0.4913
      7 O           8.8819   -1.5374    0.0000 O.3     1  UNL1       -0.4885
      8 C           5.4178    1.4626    0.0000 C.3     1  UNL1        0.0734
      9 C           4.5518    1.9626    0.0000 C.3     1  UNL1        0.0110
     10 C           5.4178    0.4626    0.0000 C.3     1  UNL1        0.0231
     11 C           3.6857    1.4626    0.0000 C.3     1  UNL1       -0.0206
     12 C           4.5518   -0.0374    0.0000 C.ar    1  UNL1       -0.0323
     13 C           4.7610    2.9344    0.0000 C.3     1  UNL1        0.0964
     14 C           3.6857    0.4626    0.0000 C.ar    1  UNL1       -0.0395
     15 C           6.1548    2.1296    0.0000 C.2     1  UNL1        0.3115
     16 C           6.2838   -0.0374    0.0000 C.ar    1  UNL1       -0.0320
     17 C           4.5678   -1.0789    0.0000 C.ar    1  UNL1       -0.0121
     18 C           2.7757   -0.0443    0.0000 C.ar    1  UNL1       -0.0127
     19 C           3.6698   -1.6067    0.0000 C.ar    1  UNL1        0.1665
     20 C           2.7677   -1.0859    0.0000 C.ar    1  UNL1        0.1665
     21 C           6.2838   -1.0374    0.0000 C.ar    1  UNL1       -0.0123
     22 C           7.1498    0.4626    0.0000 C.ar    1  UNL1       -0.0123
     23 C           8.0159   -0.0374    0.0000 C.ar    1  UNL1        0.1654
     24 C           7.1498   -1.5374    0.0000 C.ar    1  UNL1        0.1654
     25 C           8.0159   -1.0374    0.0000 C.ar    1  UNL1        0.2035
     26 C           2.4220   -2.7263    0.0000 C.3     1  UNL1        0.2332
     27 C           8.8819    1.4626    0.0000 C.3     1  UNL1        0.0790
     28 C           8.0159   -3.0374    0.0000 C.3     1  UNL1        0.0790
     29 C           9.7479   -1.0374    0.0000 C.3     1  UNL1        0.0791
     30 H           6.1947    1.1178    0.0000 H       1  UNL1        0.0427
     31 H           3.8647    2.4631    0.0000 H       1  UNL1        0.0345
     32 H           5.4178   -0.1574    0.0000 H       1  UNL1        0.0405
     33 H           3.4737    2.0452    0.0000 H       1  UNL1        0.0317
     34 H           3.0752    1.3549    0.0000 H       1  UNL1        0.0317
     35 H           4.7618    3.5544    0.0000 H       1  UNL1        0.0700
     36 H           4.1445    3.0004    0.0000 H       1  UNL1        0.0700
     37 H           5.1083   -1.3827    0.0000 H       1  UNL1        0.0658
     38 H           2.2424    0.2719    0.0000 H       1  UNL1        0.0658
     39 H           5.7469   -1.3474    0.0000 H       1  UNL1        0.0658
     40 H           7.1498    1.0826    0.0000 H       1  UNL1        0.0658
     41 H           1.8324   -2.9181    0.0000 H       1  UNL1        0.1166
     42 H           2.5507   -3.3328    0.0000 H       1  UNL1        0.1166
     43 H           9.5019    1.4626    0.0000 H       1  UNL1        0.0660
     44 H           8.8819    2.0826    0.0000 H       1  UNL1        0.0660
     45 H           8.2619    1.4626    0.0000 H       1  UNL1        0.0660
     46 H           7.7059   -3.5744    0.0000 H       1  UNL1        0.0660
     47 H           8.5528   -3.3474    0.0000 H       1  UNL1        0.0660
     48 H           8.3259   -2.5005    0.0000 H       1  UNL1        0.0660
     49 H          10.0579   -1.5744    0.0000 H       1  UNL1        0.0660
     50 H          10.2848   -0.7274    0.0000 H       1  UNL1        0.0660
     51 H           9.4379   -0.5005    0.0000 H       1  UNL1        0.0660
@<TRIPOS>BOND
     1     1    13    1
     2     1    15    1
     3     2    15    2
     4     3    19    1
     5     3    26    1
     6     4    20    1
     7     4    26    1
     8     5    23    1
     9     5    27    1
    10     6    24    1
    11     6    28    1
    12     7    25    1
    13     7    29    1
    14     8     9    1
    15     8    10    1
    16     8    15    1
    17     8    30    1
    18     9    11    1
    19     9    13    1
    20     9    31    1
    21    10    12    1
    22    10    16    1
    23    10    32    1
    24    11    14    1
    25    11    33    1
    26    11    34    1
    27    12    14   ar
    28    12    17   ar
    29    13    35    1
    30    13    36    1
    31    14    18   ar
    32    16    21   ar
    33    16    22   ar
    34    17    19   ar
    35    17    37    1
    36    18    20   ar
    37    18    38    1
    38    19    20   ar
    39    21    24   ar
    40    21    39    1
    41    22    23   ar
    42    22    40    1
    43    23    25   ar
    44    24    25   ar
    45    26    41    1
    46    26    42    1
    47    27    43    1
    48    27    44    1
    49    27    45    1
    50    28    46    1
    51    28    47    1
    52    28    48    1
    53    29    49    1
    54    29    50    1
    55    29    51    1
