@<TRIPOS>MOLECULE
IMPHY009965
 17 17 0 0 0
SMALL
GASTEIGER

@<TRIPOS>ATOM
      1 O           2.8660    1.5000    0.0000 O.2     1  UNL1       -0.2974
      2 C           2.8660   -1.5000    0.0000 C.3     1  UNL1       -0.0523
      3 C           3.7320   -1.0000    0.0000 C.3     1  UNL1       -0.0464
      4 C           2.0000   -1.0000    0.0000 C.3     1  UNL1       -0.0464
      5 C           2.0000    0.0000    0.0000 C.3     1  UNL1        0.0058
      6 C           3.7320    0.0000    0.0000 C.3     1  UNL1        0.0058
      7 C           2.8660    0.5000    0.0000 C.2     1  UNL1        0.1334
      8 H           2.4675   -1.9750    0.0000 H       1  UNL1        0.0265
      9 H           3.2646   -1.9750    0.0000 H       1  UNL1        0.0265
     10 H           3.9441   -1.5826    0.0000 H       1  UNL1        0.0269
     11 H           4.3426   -0.8923    0.0000 H       1  UNL1        0.0269
     12 H           1.3894   -0.8923    0.0000 H       1  UNL1        0.0269
     13 H           1.7880   -1.5826    0.0000 H       1  UNL1        0.0269
     14 H           4.3426   -0.1077    0.0000 H       1  UNL1        0.0342
     15 H           3.9441    0.5826    0.0000 H       1  UNL1        0.0342
     16 H           1.7880    0.5826    0.0000 H       1  UNL1        0.0342
     17 H           1.3894   -0.1077    0.0000 H       1  UNL1        0.0342
@<TRIPOS>BOND
     1     1     7    2
     2     2     3    1
     3     2     4    1
     4     2     8    1
     5     2     9    1
     6     3     6    1
     7     3    10    1
     8     3    11    1
     9     4     5    1
    10     4    12    1
    11     4    13    1
    12     5     7    1
    13     5    16    1
    14     5    17    1
    15     6     7    1
    16     6    14    1
    17     6    15    1
