@<TRIPOS>MOLECULE
IMPHY014902
 57 61 0 0 0
SMALL
GASTEIGER

@<TRIPOS>ATOM
      1 O           2.6158    1.5257    0.0000 O.3     1  UNL1       -0.3840
      2 O           6.6492   -0.4487    0.0000 O.3     1  UNL1       -0.3939
      3 O           4.5250   -2.3333    0.0000 O.3     1  UNL1       -0.4675
      4 O           6.0990   -1.6106    0.0000 O.2     1  UNL1       -0.2501
      5 N           4.2186    2.4935    0.0000 N.4     1  UNL1        0.2642
      6 N           4.2790    1.9676    0.0000 N.pl3   1  UNL1       -0.2974
      7 C           3.9700    1.0165    0.0000 C.3     1  UNL1        0.0966
      8 C           4.7790    0.4287    0.0000 C.3     1  UNL1        0.0863
      9 C           4.6861   -0.6088    0.0000 C.3     1  UNL1        0.1142
     10 C           6.1069    1.1216    0.0000 C.3     1  UNL1        0.0057
     11 C           3.7378   -1.0398    0.0000 C.3     1  UNL1        0.0066
     12 C           3.0120    0.6075    0.0000 C.3     1  UNL1        0.1196
     13 C           5.7146    2.5671    0.0000 C.3     1  UNL1       -0.0266
     14 C           4.0172    1.3216    0.0000 C.3     1  UNL1       -0.0059
     15 C           2.8951   -0.4275    0.0000 C.3     1  UNL1       -0.0116
     16 C           5.5880    1.0165    0.0000 C.ar    1  UNL1       -0.0114
     17 C           3.8569    0.1434    0.0000 C.2     1  UNL1       -0.0249
     18 C           3.5555    3.2421    0.0000 C.3     1  UNL1       -0.0387
     19 C           5.2790    1.9676    0.0000 C.ar    1  UNL1        0.0354
     20 C           5.6817   -0.7018    0.0000 C.3     1  UNL1        0.0616
     21 C           5.1034   -1.5176    0.0000 C.2     1  UNL1        0.3170
     22 C           6.3512    0.3077    0.0000 C.ar    1  UNL1       -0.0560
     23 C           2.8638    0.2609    0.0000 C.2     1  UNL1       -0.0826
     24 C           6.2645    2.3047    0.0000 C.ar    1  UNL1       -0.0404
     25 C           7.1720    0.6129    0.0000 C.ar    1  UNL1       -0.0614
     26 C           7.2163    1.6227    0.0000 C.ar    1  UNL1       -0.0600
     27 C           2.2655   -0.5404    0.0000 C.3     1  UNL1       -0.0464
     28 C           4.9422   -3.2421    0.0000 C.3     1  UNL1        0.0817
     29 H           6.3534    0.5527    0.0000 H       1  UNL1        0.0328
     30 H           6.6920    1.3266    0.0000 H       1  UNL1        0.0328
     31 H           3.6522   -1.8854    0.0000 H       1  UNL1        0.0360
     32 H           2.3987    0.5165    0.0000 H       1  UNL1        0.0672
     33 H           6.3230    2.6860    0.0000 H       1  UNL1        0.0816
     34 H           5.6397    3.1825    0.0000 H       1  UNL1        0.0816
     35 H           3.5360    1.7125    0.0000 H       1  UNL1        0.0865
     36 H           4.6300    1.2273    0.0000 H       1  UNL1        0.0865
     37 H           2.3000   -0.2536    0.0000 H       1  UNL1        0.0299
     38 H           2.6219   -0.9841    0.0000 H       1  UNL1        0.0299
     39 H           3.6774    2.1175    0.0000 H       1  UNL1        0.1517
     40 H           4.0196    3.6532    0.0000 H       1  UNL1        0.0779
     41 H           3.1444    3.7062    0.0000 H       1  UNL1        0.0779
     42 H           3.0914    2.8310    0.0000 H       1  UNL1        0.0779
     43 H           5.3843   -1.2458    0.0000 H       1  UNL1        0.0568
     44 H           5.6313   -0.0838    0.0000 H       1  UNL1        0.0568
     45 H           6.2303   -0.3004    0.0000 H       1  UNL1        0.0621
     46 H           2.0000    1.5977    0.0000 H       1  UNL1        0.2101
     47 H           2.3670    0.6318    0.0000 H       1  UNL1        0.0571
     48 H           6.3548    2.9181    0.0000 H       1  UNL1        0.0636
     49 H           7.0850   -0.8896    0.0000 H       1  UNL1        0.2094
     50 H           7.6733    0.2479    0.0000 H       1  UNL1        0.0618
     51 H           7.7738    1.8938    0.0000 H       1  UNL1        0.0618
     52 H           1.7687   -0.1695    0.0000 H       1  UNL1        0.0272
     53 H           1.8946   -1.0372    0.0000 H       1  UNL1        0.0272
     54 H           2.7623   -0.9113    0.0000 H       1  UNL1        0.0272
     55 H           4.3788   -3.5008    0.0000 H       1  UNL1        0.0661
     56 H           5.2009   -3.8055    0.0000 H       1  UNL1        0.0661
     57 H           5.5057   -2.9834    0.0000 H       1  UNL1        0.0661
@<TRIPOS>UNITY_ATOM_ATTR
5 1
charge 1
@<TRIPOS>BOND
     1    12     1    1
     2     1    46    1
     3     2    20    1
     4     2    49    1
     5     3    21    1
     6     3    28    1
     7     4    21    2
     8     5     7    1
     9     5    13    1
    10     5    14    1
    11     5    18    1
    12     7     6    1
    13     6    19    1
    14     6    39    1
    15     7     8    1
    16     7    12    1
    17     8     9    1
    18     8    10    1
    19     8    16    1
    20     9    11    1
    21     9    20    1
    22     9    21    1
    23    10    13    1
    24    10    29    1
    25    10    30    1
    26    11    15    1
    27    11    17    1
    28    11    31    1
    29    12    15    1
    30    12    32    1
    31    13    33    1
    32    13    34    1
    33    14    17    1
    34    14    35    1
    35    14    36    1
    36    15    37    1
    37    15    38    1
    38    16    19   ar
    39    16    22   ar
    40    17    23    2
    41    18    40    1
    42    18    41    1
    43    18    42    1
    44    19    24   ar
    45    20    43    1
    46    20    44    1
    47    22    25   ar
    48    22    45    1
    49    23    27    1
    50    23    47    1
    51    24    26   ar
    52    24    48    1
    53    25    26   ar
    54    25    50    1
    55    26    51    1
    56    27    52    1
    57    27    53    1
    58    27    54    1
    59    28    55    1
    60    28    56    1
    61    28    57    1
