@<TRIPOS>MOLECULE
IMPHY001897
 99 104 0 0 0
SMALL
GASTEIGER

@<TRIPOS>ATOM
      1 O           8.6036   -2.3726    0.0000 O.3     1  UNL1       -0.4551
      2 O           8.6198   -0.2810    0.0000 O.3     1  UNL1       -0.3881
      3 O          17.5287    0.7139    0.0000 O.3     1  UNL1       -0.4802
      4 O          16.6743   -0.7928    0.0000 O.2     1  UNL1       -0.2504
      5 O           7.7434   -0.8693    0.0000 O.2     1  UNL1       -0.2456
      6 O           2.5357   -3.8492    0.0000 O.3     1  UNL1       -0.5068
      7 C          13.1307   -0.8203    0.0000 C.3     1  UNL1       -0.0194
      8 C          12.2647   -0.3203    0.0000 C.3     1  UNL1       -0.0257
      9 C          11.3547   -0.8271    0.0000 C.3     1  UNL1       -0.0226
     10 C          13.9967   -0.3203    0.0000 C.3     1  UNL1       -0.0051
     11 C          11.3467   -1.8687    0.0000 C.3     1  UNL1       -0.0267
     12 C          13.1468   -1.8618    0.0000 C.3     1  UNL1       -0.0463
     13 C          13.9967    0.6797    0.0000 C.2     1  UNL1       -0.0626
     14 C          12.2487   -2.3896    0.0000 C.3     1  UNL1       -0.0486
     15 C          10.4112   -2.4185    0.0000 C.3     1  UNL1        0.0080
     16 C          14.8907    1.2144    0.0000 C.3     1  UNL1       -0.0008
     17 C          12.2647    0.6797    0.0000 C.3     1  UNL1       -0.0306
     18 C          10.4278   -0.2631    0.0000 C.3     1  UNL1       -0.0174
     19 C          14.8907   -0.8550    0.0000 C.3     1  UNL1       -0.0424
     20 C          15.7967    0.7005    0.0000 C.3     1  UNL1        0.0743
     21 C          13.7735   -1.5863    0.0000 C.3     1  UNL1       -0.0585
     22 C          15.7967   -0.3411    0.0000 C.3     1  UNL1       -0.0359
     23 C           9.4716   -1.8760    0.0000 C.3     1  UNL1        0.1344
     24 C           9.4800   -0.7910    0.0000 C.3     1  UNL1        0.0931
     25 C          13.1307    1.1797    0.0000 C.2     1  UNL1       -0.0836
     26 C          11.3624    0.1728    0.0000 C.3     1  UNL1       -0.0589
     27 C          14.3389   -1.2599    0.0000 C.3     1  UNL1       -0.0553
     28 C          14.8656    2.2991    0.0000 C.3     1  UNL1       -0.0337
     29 C          16.7405    1.2358    0.0000 C.3     1  UNL1       -0.0364
     30 C          15.7967    2.8560    0.0000 C.3     1  UNL1       -0.0407
     31 C           9.9146   -3.2864    0.0000 C.3     1  UNL1       -0.0561
     32 C          10.9146   -3.2826    0.0000 C.3     1  UNL1       -0.0561
     33 C          16.7405    2.3208    0.0000 C.3     1  UNL1       -0.0492
     34 C          16.6666    0.2072    0.0000 C.2     1  UNL1        0.3115
     35 C          13.9901    2.7823    0.0000 C.3     1  UNL1       -0.0616
     36 C          15.7852    3.8559    0.0000 C.3     1  UNL1       -0.0622
     37 C           7.7396   -1.8693    0.0000 C.2     1  UNL1        0.3323
     38 C           6.8716   -2.3660    0.0000 C.2     1  UNL1        0.0231
     39 C           6.0075   -1.8626    0.0000 C.2     1  UNL1       -0.0478
     40 C           5.1396   -2.3593    0.0000 C.ar    1  UNL1       -0.0246
     41 C           4.2755   -1.8559    0.0000 C.ar    1  UNL1       -0.0511
     42 C           5.1357   -3.3593    0.0000 C.ar    1  UNL1       -0.0511
     43 C           3.4075   -2.3526    0.0000 C.ar    1  UNL1       -0.0196
     44 C           4.2678   -3.8559    0.0000 C.ar    1  UNL1       -0.0196
     45 C           3.4037   -3.3526    0.0000 C.ar    1  UNL1        0.1169
     46 H          12.8016   -0.0103    0.0000 H       1  UNL1        0.0315
     47 H          11.3490   -2.4887    0.0000 H       1  UNL1        0.0312
     48 H          13.3648   -2.4422    0.0000 H       1  UNL1        0.0271
     49 H          13.7559   -1.7463    0.0000 H       1  UNL1        0.0271
     50 H          11.8514   -2.8655    0.0000 H       1  UNL1        0.0268
     51 H          12.6497   -2.8624    0.0000 H       1  UNL1        0.0268
     52 H          14.1465    1.6251    0.0000 H       1  UNL1        0.0359
     53 H          12.0526    1.2623    0.0000 H       1  UNL1        0.0310
     54 H          11.6541    0.5720    0.0000 H       1  UNL1        0.0310
     55 H          10.8361    0.2036    0.0000 H       1  UNL1        0.0297
     56 H          10.0379    0.2190    0.0000 H       1  UNL1        0.0297
     57 H          14.4861   -1.3247    0.0000 H       1  UNL1        0.0274
     58 H          15.2843   -1.3340    0.0000 H       1  UNL1        0.0274
     59 H          13.2985   -1.9849    0.0000 H       1  UNL1        0.0235
     60 H          14.1720   -2.0613    0.0000 H       1  UNL1        0.0235
     61 H          14.2484   -1.1878    0.0000 H       1  UNL1        0.0235
     62 H          16.0058   -0.9248    0.0000 H       1  UNL1        0.0276
     63 H          16.4076   -0.2350    0.0000 H       1  UNL1        0.0276
     64 H           9.4704   -2.4960    0.0000 H       1  UNL1        0.0766
     65 H           8.9401   -1.0958    0.0000 H       1  UNL1        0.0630
     66 H          13.1307    1.7997    0.0000 H       1  UNL1        0.0572
     67 H          11.9824    0.1681    0.0000 H       1  UNL1        0.0235
     68 H          11.3672    0.7928    0.0000 H       1  UNL1        0.0235
     69 H          10.7424    0.1776    0.0000 H       1  UNL1        0.0235
     70 H          13.7563   -1.4721    0.0000 H       1  UNL1        0.0238
     71 H          14.5510   -1.8425    0.0000 H       1  UNL1        0.0238
     72 H          14.9214   -1.0478    0.0000 H       1  UNL1        0.0238
     73 H          14.8548    2.9190    0.0000 H       1  UNL1        0.0307
     74 H          16.9496    0.6521    0.0000 H       1  UNL1        0.0276
     75 H          17.3514    1.3418    0.0000 H       1  UNL1        0.0276
     76 H          15.2557    3.1587    0.0000 H       1  UNL1        0.0301
     77 H           9.3764   -2.9785    0.0000 H       1  UNL1        0.0236
     78 H           9.6066   -3.8245    0.0000 H       1  UNL1        0.0236
     79 H          10.4527   -3.5943    0.0000 H       1  UNL1        0.0236
     80 H          10.3788   -3.5946    0.0000 H       1  UNL1        0.0236
     81 H          11.2266   -3.8183    0.0000 H       1  UNL1        0.0236
     82 H          11.4503   -2.9705    0.0000 H       1  UNL1        0.0236
     83 H          17.3514    2.2147    0.0000 H       1  UNL1        0.0268
     84 H          16.9496    2.9044    0.0000 H       1  UNL1        0.0268
     85 H          14.2897    3.3251    0.0000 H       1  UNL1        0.0233
     86 H          13.4473    3.0819    0.0000 H       1  UNL1        0.0233
     87 H          13.6905    2.2395    0.0000 H       1  UNL1        0.0233
     88 H           8.6270    0.3389    0.0000 H       1  UNL1        0.2099
     89 H          16.4051    3.8631    0.0000 H       1  UNL1        0.0233
     90 H          15.7780    4.4759    0.0000 H       1  UNL1        0.0233
     91 H          15.1652    3.8488    0.0000 H       1  UNL1        0.0233
     92 H          18.0681    0.4080    0.0000 H       1  UNL1        0.2951
     93 H           6.8692   -2.9859    0.0000 H       1  UNL1        0.0689
     94 H           6.0099   -1.2426    0.0000 H       1  UNL1        0.0626
     95 H           4.2779   -1.2359    0.0000 H       1  UNL1        0.0625
     96 H           5.6715   -3.6713    0.0000 H       1  UNL1        0.0625
     97 H           2.8718   -2.0405    0.0000 H       1  UNL1        0.0654
     98 H           4.2654   -4.4759    0.0000 H       1  UNL1        0.0654
     99 H           2.0000   -3.5372    0.0000 H       1  UNL1        0.2921
@<TRIPOS>BOND
     1    23     1    1
     2     1    37    1
     3    24     2    1
     4     2    88    1
     5     3    34    1
     6     3    92    1
     7     4    34    2
     8     5    37    2
     9     6    45    1
    10     6    99    1
    11     7     8    1
    12     7    10    1
    13     7    12    1
    14     7    21    1
    15     8     9    1
    16     8    17    1
    17     8    46    1
    18     9    11    1
    19     9    18    1
    20     9    26    1
    21    10    13    1
    22    10    19    1
    23    10    27    1
    24    11    14    1
    25    11    15    1
    26    11    47    1
    27    12    14    1
    28    12    48    1
    29    12    49    1
    30    13    16    1
    31    13    25    2
    32    14    50    1
    33    14    51    1
    34    15    23    1
    35    15    31    1
    36    15    32    1
    37    16    20    1
    38    16    28    1
    39    16    52    1
    40    17    25    1
    41    17    53    1
    42    17    54    1
    43    18    24    1
    44    18    55    1
    45    18    56    1
    46    19    22    1
    47    19    57    1
    48    19    58    1
    49    20    22    1
    50    20    29    1
    51    20    34    1
    52    21    59    1
    53    21    60    1
    54    21    61    1
    55    22    62    1
    56    22    63    1
    57    23    24    1
    58    23    64    1
    59    24    65    1
    60    25    66    1
    61    26    67    1
    62    26    68    1
    63    26    69    1
    64    27    70    1
    65    27    71    1
    66    27    72    1
    67    28    30    1
    68    28    35    1
    69    28    73    1
    70    29    33    1
    71    29    74    1
    72    29    75    1
    73    30    33    1
    74    30    36    1
    75    30    76    1
    76    31    77    1
    77    31    78    1
    78    31    79    1
    79    32    80    1
    80    32    81    1
    81    32    82    1
    82    33    83    1
    83    33    84    1
    84    35    85    1
    85    35    86    1
    86    35    87    1
    87    36    89    1
    88    36    90    1
    89    36    91    1
    90    37    38    1
    91    38    39    2
    92    38    93    1
    93    39    40    1
    94    39    94    1
    95    40    41   ar
    96    40    42   ar
    97    41    43   ar
    98    41    95    1
    99    42    44   ar
   100    42    96    1
   101    43    45   ar
   102    43    97    1
   103    44    45   ar
   104    44    98    1
