@<TRIPOS>MOLECULE
IMPHY003564
 53 56 0 0 0
SMALL
GASTEIGER

@<TRIPOS>ATOM
      1 O           9.9953   -2.3998    0.0000 O.3     1  UNL1       -0.4814
      2 O           6.3981   -2.3220    0.0000 O.2     1  UNL1       -0.4543
      3 O           8.1465    0.7126    0.0000 O.3     1  UNL1       -0.5052
      4 O           6.3981    0.6780    0.0000 O.2     1  UNL1       -0.2863
      5 O           2.8680   -0.2979    0.0000 O.3     1  UNL1       -0.4948
      6 C          10.9391   -1.8645    0.0000 C.3     1  UNL1        0.1235
      7 C           9.0641   -0.8012    0.0000 C.ar    1  UNL1        0.0588
      8 C           9.0641   -1.8428    0.0000 C.ar    1  UNL1        0.1359
      9 C           7.2641   -0.8220    0.0000 C.ar    1  UNL1        0.1067
     10 C           7.2641   -1.8220    0.0000 C.ar    1  UNL1        0.1463
     11 C           5.5320   -0.8220    0.0000 C.ar    1  UNL1        0.0716
     12 C           8.1580   -0.2874    0.0000 C.ar    1  UNL1        0.1418
     13 C          10.9391   -0.7795    0.0000 C.2     1  UNL1       -0.0408
     14 C           8.1580   -2.3567    0.0000 C.ar    1  UNL1        0.0240
     15 C           6.3981   -0.3220    0.0000 C.ar    1  UNL1        0.2041
     16 C           9.9953   -0.2443    0.0000 C.2     1  UNL1       -0.0478
     17 C           4.6381   -0.2874    0.0000 C.ar    1  UNL1        0.0123
     18 C           5.5320   -1.8220    0.0000 C.ar    1  UNL1        0.1398
     19 C          11.9390   -1.8684    0.0000 C.3     1  UNL1       -0.0215
     20 C          11.4357   -2.7325    0.0000 C.3     1  UNL1       -0.0215
     21 C           4.6497    0.7126    0.0000 C.3     1  UNL1       -0.0050
     22 C           3.7320   -0.8012    0.0000 C.ar    1  UNL1        0.1245
     23 C           4.6381   -2.3567    0.0000 C.ar    1  UNL1       -0.0151
     24 C           3.7320   -1.8428    0.0000 C.ar    1  UNL1       -0.0162
     25 C           3.7895    1.2226    0.0000 C.2     1  UNL1       -0.0808
     26 C           3.8010    2.2225    0.0000 C.2     1  UNL1       -0.0793
     27 C           2.9409    2.7325    0.0000 C.3     1  UNL1       -0.0440
     28 C           4.6728    2.7124    0.0000 C.3     1  UNL1       -0.0440
     29 C           2.0000   -0.7945    0.0000 C.3     1  UNL1        0.0788
     30 H          11.4748   -0.4675    0.0000 H       1  UNL1        0.0611
     31 H           8.1509   -2.9766    0.0000 H       1  UNL1        0.0691
     32 H           9.9881    0.3757    0.0000 H       1  UNL1        0.0624
     33 H          11.9367   -2.4884    0.0000 H       1  UNL1        0.0271
     34 H          12.5590   -1.8708    0.0000 H       1  UNL1        0.0271
     35 H          11.9414   -1.2484    0.0000 H       1  UNL1        0.0271
     36 H          10.8976   -3.0404    0.0000 H       1  UNL1        0.0271
     37 H          11.7436   -3.2706    0.0000 H       1  UNL1        0.0271
     38 H          11.9738   -2.4245    0.0000 H       1  UNL1        0.0271
     39 H           5.2590    0.5979    0.0000 H       1  UNL1        0.0357
     40 H           4.8684    1.2927    0.0000 H       1  UNL1        0.0357
     41 H           4.6453   -2.9766    0.0000 H       1  UNL1        0.0656
     42 H           3.1963   -2.1549    0.0000 H       1  UNL1        0.0655
     43 H           3.2490    0.9188    0.0000 H       1  UNL1        0.0575
     44 H           8.6798    1.0288    0.0000 H       1  UNL1        0.2922
     45 H           3.2570    3.2658    0.0000 H       1  UNL1        0.0274
     46 H           4.9766    2.1720    0.0000 H       1  UNL1        0.0274
     47 H           5.2133    3.0162    0.0000 H       1  UNL1        0.0274
     48 H           4.3690    3.2529    0.0000 H       1  UNL1        0.0274
     49 H           2.4075    3.0486    0.0000 H       1  UNL1        0.0274
     50 H           2.6247    2.1992    0.0000 H       1  UNL1        0.0274
     51 H           1.6921   -0.2564    0.0000 H       1  UNL1        0.0660
     52 H           1.4619   -1.1025    0.0000 H       1  UNL1        0.0660
     53 H           2.3079   -1.3327    0.0000 H       1  UNL1        0.0660
@<TRIPOS>BOND
     1     1     6    1
     2     1     8    1
     3     2    10   ar
     4     2    18   ar
     5     3    12    1
     6     3    44    1
     7     4    15    2
     8     5    22    1
     9     5    29    1
    10     6    13    1
    11     6    19    1
    12     6    20    1
    13     7     8   ar
    14     7    12   ar
    15     7    16    1
    16     8    14   ar
    17     9    10   ar
    18     9    12   ar
    19     9    15   ar
    20    10    14   ar
    21    11    15   ar
    22    11    17   ar
    23    11    18   ar
    24    13    16    2
    25    13    30    1
    26    14    31    1
    27    16    32    1
    28    17    21    1
    29    17    22   ar
    30    18    23   ar
    31    19    33    1
    32    19    34    1
    33    19    35    1
    34    20    36    1
    35    20    37    1
    36    20    38    1
    37    21    25    1
    38    21    39    1
    39    21    40    1
    40    22    24   ar
    41    23    24   ar
    42    23    41    1
    43    24    42    1
    44    25    26    2
    45    25    43    1
    46    26    27    1
    47    26    28    1
    48    27    45    1
    49    27    49    1
    50    27    50    1
    51    28    46    1
    52    28    47    1
    53    28    48    1
    54    29    51    1
    55    29    52    1
    56    29    53    1
