@<TRIPOS>MOLECULE
IMPHY009790
 48 47 0 0 0
SMALL
GASTEIGER

@<TRIPOS>ATOM
      1 C           7.1962    0.6900    0.0000 C.3     1  UNL1       -0.0531
      2 C           6.3301    0.1900    0.0000 C.3     1  UNL1       -0.0531
      3 C           8.0622    0.1900    0.0000 C.3     1  UNL1       -0.0531
      4 C           5.4641    0.6900    0.0000 C.3     1  UNL1       -0.0531
      5 C           8.9282    0.6900    0.0000 C.3     1  UNL1       -0.0530
      6 C           4.5981    0.1900    0.0000 C.3     1  UNL1       -0.0531
      7 C           9.7942    0.1900    0.0000 C.3     1  UNL1       -0.0528
      8 C           3.7320    0.6900    0.0000 C.3     1  UNL1       -0.0533
      9 C          10.6603    0.6900    0.0000 C.3     1  UNL1       -0.0496
     10 C           2.8660    0.1900    0.0000 C.3     1  UNL1       -0.0559
     11 C          11.5263    0.1900    0.0000 C.3     1  UNL1       -0.0348
     12 C           2.0000    0.6900    0.0000 C.3     1  UNL1       -0.0653
     13 C          12.3923    0.6900    0.0000 C.2     1  UNL1       -0.0879
     14 C          13.2583    0.1900    0.0000 C.2     1  UNL1       -0.0882
     15 C          13.2583   -0.8100    0.0000 C.3     1  UNL1       -0.0376
     16 C          14.1244   -1.3100    0.0000 C.3     1  UNL1       -0.0618
     17 H           7.5947    1.1650    0.0000 H       1  UNL1        0.0265
     18 H           6.7976    1.1650    0.0000 H       1  UNL1        0.0265
     19 H           5.9316   -0.2849    0.0000 H       1  UNL1        0.0265
     20 H           6.7287   -0.2849    0.0000 H       1  UNL1        0.0265
     21 H           7.6636   -0.2849    0.0000 H       1  UNL1        0.0265
     22 H           8.4607   -0.2849    0.0000 H       1  UNL1        0.0265
     23 H           5.8626    1.1650    0.0000 H       1  UNL1        0.0265
     24 H           5.0656    1.1650    0.0000 H       1  UNL1        0.0265
     25 H           9.3267    1.1650    0.0000 H       1  UNL1        0.0265
     26 H           8.5297    1.1650    0.0000 H       1  UNL1        0.0265
     27 H           4.1996   -0.2849    0.0000 H       1  UNL1        0.0265
     28 H           4.9966   -0.2849    0.0000 H       1  UNL1        0.0265
     29 H           9.3957   -0.2849    0.0000 H       1  UNL1        0.0265
     30 H          10.1928   -0.2849    0.0000 H       1  UNL1        0.0265
     31 H           4.1306    1.1650    0.0000 H       1  UNL1        0.0265
     32 H           3.3335    1.1650    0.0000 H       1  UNL1        0.0265
     33 H          11.0588    1.1650    0.0000 H       1  UNL1        0.0268
     34 H          10.2617    1.1650    0.0000 H       1  UNL1        0.0268
     35 H           2.4675   -0.2849    0.0000 H       1  UNL1        0.0263
     36 H           3.2646   -0.2849    0.0000 H       1  UNL1        0.0263
     37 H          11.1278   -0.2849    0.0000 H       1  UNL1        0.0307
     38 H          11.9248   -0.2849    0.0000 H       1  UNL1        0.0307
     39 H           2.3100    1.2269    0.0000 H       1  UNL1        0.0230
     40 H           1.4631    1.0000    0.0000 H       1  UNL1        0.0230
     41 H           1.6900    0.1531    0.0000 H       1  UNL1        0.0230
     42 H          12.3923    1.3100    0.0000 H       1  UNL1        0.0569
     43 H          13.7953    0.5000    0.0000 H       1  UNL1        0.0569
     44 H          12.6477   -0.7023    0.0000 H       1  UNL1        0.0305
     45 H          13.0463   -1.3926    0.0000 H       1  UNL1        0.0305
     46 H          13.8144   -1.8469    0.0000 H       1  UNL1        0.0233
     47 H          14.6613   -1.6200    0.0000 H       1  UNL1        0.0233
     48 H          14.4344   -0.7731    0.0000 H       1  UNL1        0.0233
@<TRIPOS>BOND
     1     1     2    1
     2     1     3    1
     3     1    17    1
     4     1    18    1
     5     2     4    1
     6     2    19    1
     7     2    20    1
     8     3     5    1
     9     3    21    1
    10     3    22    1
    11     4     6    1
    12     4    23    1
    13     4    24    1
    14     5     7    1
    15     5    25    1
    16     5    26    1
    17     6     8    1
    18     6    27    1
    19     6    28    1
    20     7     9    1
    21     7    29    1
    22     7    30    1
    23     8    10    1
    24     8    31    1
    25     8    32    1
    26     9    11    1
    27     9    33    1
    28     9    34    1
    29    10    12    1
    30    10    35    1
    31    10    36    1
    32    11    13    1
    33    11    37    1
    34    11    38    1
    35    12    39    1
    36    12    40    1
    37    12    41    1
    38    13    14    2
    39    13    42    1
    40    14    15    1
    41    14    43    1
    42    15    16    1
    43    15    44    1
    44    15    45    1
    45    16    46    1
    46    16    47    1
    47    16    48    1
