@<TRIPOS>MOLECULE
IMPHY011273
 79 83 0 0 0
SMALL
GASTEIGER

@<TRIPOS>ATOM
      1 O           2.0000   -2.6574    0.0000 O.2     1  UNL1       -0.2968
      2 C           6.5271   -1.1050    0.0000 C.3     1  UNL1       -0.0194
      3 C           5.6610   -0.6051    0.0000 C.3     1  UNL1       -0.0257
      4 C           7.3931   -0.6051    0.0000 C.3     1  UNL1       -0.0051
      5 C           4.7510   -1.1119    0.0000 C.3     1  UNL1       -0.0243
      6 C           4.7430   -2.1535    0.0000 C.3     1  UNL1       -0.0235
      7 C           7.3931    0.3949    0.0000 C.2     1  UNL1       -0.0632
      8 C           6.5431   -2.1466    0.0000 C.3     1  UNL1       -0.0463
      9 C           8.2870    0.9296    0.0000 C.3     1  UNL1       -0.0111
     10 C           9.1931    0.4158    0.0000 C.3     1  UNL1       -0.0253
     11 C           8.2870   -1.1397    0.0000 C.3     1  UNL1       -0.0429
     12 C           5.6451   -2.6743    0.0000 C.3     1  UNL1       -0.0483
     13 C           5.6610    0.3949    0.0000 C.3     1  UNL1       -0.0306
     14 C           9.1931   -0.6259    0.0000 C.3     1  UNL1       -0.0463
     15 C           3.8076   -2.7032    0.0000 C.3     1  UNL1        0.0267
     16 C           3.8242   -0.5478    0.0000 C.3     1  UNL1       -0.0404
     17 C           7.1698   -1.8711    0.0000 C.3     1  UNL1       -0.0585
     18 C           8.2619    2.0143    0.0000 C.3     1  UNL1       -0.0343
     19 C           6.5271    0.8949    0.0000 C.2     1  UNL1       -0.0836
     20 C           7.7352   -1.5447    0.0000 C.3     1  UNL1       -0.0553
     21 C           4.7587   -0.1119    0.0000 C.3     1  UNL1       -0.0590
     22 C          10.1369    0.9510    0.0000 C.3     1  UNL1       -0.0468
     23 C           9.1931    2.5712    0.0000 C.3     1  UNL1       -0.0407
     24 C           2.8763   -1.0758    0.0000 C.3     1  UNL1        0.0069
     25 C          10.1369    2.0360    0.0000 C.3     1  UNL1       -0.0497
     26 C           2.8680   -2.1607    0.0000 C.2     1  UNL1        0.1392
     27 C          10.0629   -0.0775    0.0000 C.3     1  UNL1       -0.0590
     28 C           3.3109   -3.5712    0.0000 C.3     1  UNL1       -0.0528
     29 C           4.3109   -3.5673    0.0000 C.3     1  UNL1       -0.0528
     30 C           7.3864    2.4975    0.0000 C.3     1  UNL1       -0.0616
     31 C           9.1815    3.5712    0.0000 C.3     1  UNL1       -0.0622
     32 H           6.3972   -0.1801    0.0000 H       1  UNL1        0.0315
     33 H           4.7463   -3.0035    0.0000 H       1  UNL1        0.0315
     34 H           6.7612   -2.7270    0.0000 H       1  UNL1        0.0271
     35 H           7.1523   -2.0311    0.0000 H       1  UNL1        0.0271
     36 H           7.5428    1.3404    0.0000 H       1  UNL1        0.0354
     37 H           7.8824   -1.6095    0.0000 H       1  UNL1        0.0274
     38 H           8.6806   -1.6187    0.0000 H       1  UNL1        0.0274
     39 H           5.2478   -3.1503    0.0000 H       1  UNL1        0.0269
     40 H           6.0460   -3.1472    0.0000 H       1  UNL1        0.0269
     41 H           5.4490    0.9776    0.0000 H       1  UNL1        0.0310
     42 H           5.0504    0.2873    0.0000 H       1  UNL1        0.0310
     43 H           9.4022   -1.2096    0.0000 H       1  UNL1        0.0271
     44 H           9.8040   -0.5198    0.0000 H       1  UNL1        0.0271
     45 H           4.2324   -0.0812    0.0000 H       1  UNL1        0.0275
     46 H           3.4343   -0.0658    0.0000 H       1  UNL1        0.0275
     47 H           6.6949   -2.2696    0.0000 H       1  UNL1        0.0235
     48 H           7.5684   -2.3460    0.0000 H       1  UNL1        0.0235
     49 H           7.6448   -1.4726    0.0000 H       1  UNL1        0.0235
     50 H           7.7317    1.6930    0.0000 H       1  UNL1        0.0307
     51 H           6.5271    1.5150    0.0000 H       1  UNL1        0.0572
     52 H           7.1526   -1.7568    0.0000 H       1  UNL1        0.0238
     53 H           7.9473   -2.1273    0.0000 H       1  UNL1        0.0238
     54 H           8.3178   -1.3326    0.0000 H       1  UNL1        0.0238
     55 H           5.3787   -0.1167    0.0000 H       1  UNL1        0.0235
     56 H           4.7635    0.5081    0.0000 H       1  UNL1        0.0235
     57 H           4.1388   -0.1071    0.0000 H       1  UNL1        0.0235
     58 H          10.3459    0.3673    0.0000 H       1  UNL1        0.0271
     59 H          10.7477    1.0571    0.0000 H       1  UNL1        0.0271
     60 H           9.7270    2.8864    0.0000 H       1  UNL1        0.0301
     61 H           2.6718   -0.4905    0.0000 H       1  UNL1        0.0342
     62 H           2.2647   -1.1771    0.0000 H       1  UNL1        0.0342
     63 H          10.7477    1.9299    0.0000 H       1  UNL1        0.0268
     64 H          10.3459    2.6197    0.0000 H       1  UNL1        0.0268
     65 H           9.7571   -0.6169    0.0000 H       1  UNL1        0.0235
     66 H          10.6023   -0.3834    0.0000 H       1  UNL1        0.0235
     67 H          10.3688    0.4618    0.0000 H       1  UNL1        0.0235
     68 H           2.7728   -3.2632    0.0000 H       1  UNL1        0.0239
     69 H           3.0030   -4.1093    0.0000 H       1  UNL1        0.0239
     70 H           3.8490   -3.8791    0.0000 H       1  UNL1        0.0239
     71 H           3.7752   -3.8794    0.0000 H       1  UNL1        0.0239
     72 H           4.6230   -4.1030    0.0000 H       1  UNL1        0.0239
     73 H           4.8466   -3.2553    0.0000 H       1  UNL1        0.0239
     74 H           7.6860    3.0403    0.0000 H       1  UNL1        0.0233
     75 H           6.8436    2.7971    0.0000 H       1  UNL1        0.0233
     76 H           7.0868    1.9547    0.0000 H       1  UNL1        0.0233
     77 H           9.8015    3.5783    0.0000 H       1  UNL1        0.0233
     78 H           9.1744    4.1911    0.0000 H       1  UNL1        0.0233
     79 H           8.5616    3.5640    0.0000 H       1  UNL1        0.0233
@<TRIPOS>BOND
     1     1    26    2
     2     2     3    1
     3     2     4    1
     4     2     8    1
     5     2    17    1
     6     3     5    1
     7     3    13    1
     8     3    32    1
     9     4     7    1
    10     4    11    1
    11     4    20    1
    12     5     6    1
    13     5    16    1
    14     5    21    1
    15     6    12    1
    16     6    15    1
    17     6    33    1
    18     7     9    1
    19     7    19    2
    20     8    12    1
    21     8    34    1
    22     8    35    1
    23     9    10    1
    24     9    18    1
    25     9    36    1
    26    10    14    1
    27    10    22    1
    28    10    27    1
    29    11    14    1
    30    11    37    1
    31    11    38    1
    32    12    39    1
    33    12    40    1
    34    13    19    1
    35    13    41    1
    36    13    42    1
    37    14    43    1
    38    14    44    1
    39    15    26    1
    40    15    28    1
    41    15    29    1
    42    16    24    1
    43    16    45    1
    44    16    46    1
    45    17    47    1
    46    17    48    1
    47    17    49    1
    48    18    23    1
    49    18    30    1
    50    18    50    1
    51    19    51    1
    52    20    52    1
    53    20    53    1
    54    20    54    1
    55    21    55    1
    56    21    56    1
    57    21    57    1
    58    22    25    1
    59    22    58    1
    60    22    59    1
    61    23    25    1
    62    23    31    1
    63    23    60    1
    64    24    26    1
    65    24    61    1
    66    24    62    1
    67    25    63    1
    68    25    64    1
    69    27    65    1
    70    27    66    1
    71    27    67    1
    72    28    68    1
    73    28    69    1
    74    28    70    1
    75    29    71    1
    76    29    72    1
    77    29    73    1
    78    30    74    1
    79    30    75    1
    80    30    76    1
    81    31    77    1
    82    31    78    1
    83    31    79    1
