@<TRIPOS>MOLECULE
IMPHY012284
 50 52 0 0 0
SMALL
GASTEIGER

@<TRIPOS>ATOM
      1 O           2.0000    0.6791    0.0000 O.3     1  UNL1       -0.4914
      2 O           2.0000    2.6791    0.0000 O.3     1  UNL1       -0.4914
      3 O           7.1777   -3.3753    0.0000 O.3     1  UNL1       -0.5033
      4 O           8.9212   -2.3954    0.0000 O.3     1  UNL1       -0.4915
      5 N           6.3981    1.1583    0.0000 N.3     1  UNL1       -0.2978
      6 C           5.4920    0.6444    0.0000 C.3     1  UNL1        0.0397
      7 C           4.5981    1.1791    0.0000 C.ar    1  UNL1       -0.0231
      8 C           6.3981    2.1999    0.0000 C.3     1  UNL1        0.0032
      9 C           5.4920    2.7138    0.0000 C.3     1  UNL1       -0.0144
     10 C           4.5981    2.1791    0.0000 C.ar    1  UNL1       -0.0378
     11 C           5.4804   -0.3555    0.0000 C.3     1  UNL1       -0.0078
     12 C           3.7320    0.6791    0.0000 C.ar    1  UNL1       -0.0114
     13 C           7.2622    0.6549    0.0000 C.3     1  UNL1       -0.0122
     14 C           3.7320    2.6791    0.0000 C.ar    1  UNL1       -0.0128
     15 C           6.3406   -0.8655    0.0000 C.ar    1  UNL1       -0.0419
     16 C           2.8660    1.1791    0.0000 C.ar    1  UNL1        0.1618
     17 C           2.8660    2.1791    0.0000 C.ar    1  UNL1        0.1618
     18 C           6.3291   -1.8654    0.0000 C.ar    1  UNL1       -0.0133
     19 C           7.2124   -0.3755    0.0000 C.ar    1  UNL1       -0.0548
     20 C           7.1893   -2.3754    0.0000 C.ar    1  UNL1        0.1587
     21 C           8.0726   -0.8855    0.0000 C.ar    1  UNL1       -0.0161
     22 C           8.0610   -1.8854    0.0000 C.ar    1  UNL1        0.1613
     23 C           2.0000   -0.3209    0.0000 C.3     1  UNL1        0.0790
     24 C           2.0000    3.6791    0.0000 C.3     1  UNL1        0.0790
     25 C           9.7930   -1.9055    0.0000 C.3     1  UNL1        0.0790
     26 H           6.0259    0.3293    0.0000 H       1  UNL1        0.0515
     27 H           7.0089    2.0938    0.0000 H       1  UNL1        0.0430
     28 H           6.6071    2.7836    0.0000 H       1  UNL1        0.0430
     29 H           5.8856    3.1928    0.0000 H       1  UNL1        0.0326
     30 H           5.0874    3.1836    0.0000 H       1  UNL1        0.0326
     31 H           4.8712   -0.2408    0.0000 H       1  UNL1        0.0332
     32 H           5.2617   -0.9356    0.0000 H       1  UNL1        0.0332
     33 H           3.7320    0.0591    0.0000 H       1  UNL1        0.0659
     34 H           6.9501    0.1192    0.0000 H       1  UNL1        0.0391
     35 H           7.7979    0.3429    0.0000 H       1  UNL1        0.0391
     36 H           7.5742    1.1907    0.0000 H       1  UNL1        0.0391
     37 H           3.7320    3.2991    0.0000 H       1  UNL1        0.0658
     38 H           5.7886   -2.1692    0.0000 H       1  UNL1        0.0658
     39 H           7.2196    0.2444    0.0000 H       1  UNL1        0.0621
     40 H           8.6131   -0.5817    0.0000 H       1  UNL1        0.0655
     41 H           1.3800   -0.3209    0.0000 H       1  UNL1        0.0660
     42 H           2.0000   -0.9409    0.0000 H       1  UNL1        0.0660
     43 H           2.6200   -0.3209    0.0000 H       1  UNL1        0.0660
     44 H           2.6200    3.6791    0.0000 H       1  UNL1        0.0660
     45 H           2.0000    4.2991    0.0000 H       1  UNL1        0.0660
     46 H           1.3800    3.6791    0.0000 H       1  UNL1        0.0660
     47 H           6.6372   -3.6791    0.0000 H       1  UNL1        0.2923
     48 H          10.0967   -2.4460    0.0000 H       1  UNL1        0.0660
     49 H          10.3334   -1.6017    0.0000 H       1  UNL1        0.0660
     50 H           9.4892   -1.3650    0.0000 H       1  UNL1        0.0660
@<TRIPOS>BOND
     1     1    16    1
     2     1    23    1
     3     2    17    1
     4     2    24    1
     5     3    20    1
     6     3    47    1
     7     4    22    1
     8     4    25    1
     9     5     6    1
    10     5     8    1
    11     5    13    1
    12     6     7    1
    13     6    11    1
    14     6    26    1
    15     7    10   ar
    16     7    12   ar
    17     8     9    1
    18     8    27    1
    19     8    28    1
    20     9    10    1
    21     9    29    1
    22     9    30    1
    23    10    14   ar
    24    11    15    1
    25    11    31    1
    26    11    32    1
    27    12    16   ar
    28    12    33    1
    29    13    34    1
    30    13    35    1
    31    13    36    1
    32    14    17   ar
    33    14    37    1
    34    15    18   ar
    35    15    19   ar
    36    16    17   ar
    37    18    20   ar
    38    18    38    1
    39    19    21   ar
    40    19    39    1
    41    20    22   ar
    42    21    22   ar
    43    21    40    1
    44    23    41    1
    45    23    42    1
    46    23    43    1
    47    24    44    1
    48    24    45    1
    49    24    46    1
    50    25    48    1
    51    25    49    1
    52    25    50    1
