@<TRIPOS>MOLECULE
IMPHY001725
 159 166 0 0 0
SMALL
GASTEIGER

@<TRIPOS>ATOM
      1 O           9.7107    3.6942    0.0000 O.3     1  UNL1       -0.3449
      2 O           7.3671   -4.5671    0.0000 O.3     1  UNL1       -0.3860
      3 O           7.1153    1.2090    0.0000 O.2     1  UNL1       -0.3004
      4 O           6.0010   -5.2011    0.0000 O.3     1  UNL1       -0.3459
      5 O          11.3591    3.1625    0.0000 O.3     1  UNL1       -0.3461
      6 O          10.3247    5.5976    0.0000 O.3     1  UNL1       -0.3378
      7 O           4.2690   -5.2011    0.0000 O.3     1  UNL1       -0.3405
      8 O          12.2801    6.0176    0.0000 O.3     1  UNL1       -0.3401
      9 O           6.0010   -7.2011    0.0000 O.3     1  UNL1       -0.3841
     10 O          13.6215    4.5342    0.0000 O.3     1  UNL1       -0.3868
     11 O           4.2690   -8.2011    0.0000 O.3     1  UNL1       -0.3864
     12 O           9.0400    4.4360    0.0000 O.3     1  UNL1       -0.3431
     13 O           2.5369   -7.2011    0.0000 O.3     1  UNL1       -0.3865
     14 O          13.9285    5.4859    0.0000 O.3     1  UNL1       -0.3461
     15 O           8.9833    7.0811    0.0000 O.3     1  UNL1       -0.3841
     16 O           2.5369   -4.2011    0.0000 O.3     1  UNL1       -0.3924
     17 O           7.0279    6.6611    0.0000 O.3     1  UNL1       -0.3864
     18 O          12.8941    7.9210    0.0000 O.3     1  UNL1       -0.3841
     19 O           6.4139    4.7577    0.0000 O.3     1  UNL1       -0.3866
     20 O          14.8495    8.3410    0.0000 O.3     1  UNL1       -0.3864
     21 O          16.1909    6.8576    0.0000 O.3     1  UNL1       -0.3869
     22 C           9.1253   -1.0556    0.0000 C.3     1  UNL1       -0.0227
     23 C           8.8146   -2.0062    0.0000 C.3     1  UNL1       -0.0232
     24 C           8.4575   -0.3113    0.0000 C.3     1  UNL1       -0.0228
     25 C           7.8361   -2.2124    0.0000 C.3     1  UNL1       -0.0296
     26 C           8.7658    0.6836    0.0000 C.3     1  UNL1        0.0327
     27 C           9.7833    0.9063    0.0000 C.3     1  UNL1       -0.0212
     28 C          10.1477   -0.8566    0.0000 C.3     1  UNL1       -0.0465
     29 C           7.7331   -3.2011    0.0000 C.3     1  UNL1       -0.0066
     30 C           7.4790   -0.5176    0.0000 C.3     1  UNL1       -0.0485
     31 C           9.3080   -2.8692    0.0000 C.3     1  UNL1       -0.0465
     32 C           7.1683   -1.4681    0.0000 C.3     1  UNL1       -0.0491
     33 C          10.4790    0.1310    0.0000 C.3     1  UNL1       -0.0482
     34 C           8.6409   -3.6062    0.0000 C.3     1  UNL1       -0.0467
     35 C          10.1283    1.9350    0.0000 C.3     1  UNL1       -0.0048
     36 C           8.0227    1.4742    0.0000 C.3     1  UNL1       -0.0380
     37 C          10.0074   -1.5266    0.0000 C.3     1  UNL1       -0.0588
     38 C           9.8047   -2.1470    0.0000 C.3     1  UNL1       -0.0588
     39 C           6.8671   -3.7011    0.0000 C.3     1  UNL1        0.0927
     40 C           9.4037    2.7425    0.0000 C.3     1  UNL1        0.0672
     41 C           8.3438    2.5106    0.0000 C.3     1  UNL1       -0.0251
     42 C           7.7889    0.4699    0.0000 C.2     1  UNL1        0.1270
     43 C          10.8752    2.5999    0.0000 C.3     1  UNL1       -0.0572
     44 C          11.0776    1.6206    0.0000 C.3     1  UNL1       -0.0572
     45 C           6.3671   -2.8351    0.0000 C.3     1  UNL1       -0.0181
     46 C           6.0010   -4.2011    0.0000 C.3     1  UNL1        0.0798
     47 C           5.3671   -2.8351    0.0000 C.3     1  UNL1       -0.0318
     48 C          10.6884    3.9042    0.0000 C.3     1  UNL1        0.1882
     49 C          10.9954    4.8559    0.0000 C.3     1  UNL1        0.1410
     50 C           4.8671   -1.9691    0.0000 C.2     1  UNL1       -0.0852
     51 C           5.1350   -5.7011    0.0000 C.3     1  UNL1        0.1880
     52 C          11.9731    5.0659    0.0000 C.3     1  UNL1        0.1206
     53 C          12.3368    3.3725    0.0000 C.3     1  UNL1        0.0792
     54 C           5.1350   -6.7011    0.0000 C.3     1  UNL1        0.1341
     55 C          12.6438    4.3242    0.0000 C.3     1  UNL1        0.1073
     56 C           3.8671   -1.9691    0.0000 C.2     1  UNL1       -0.0796
     57 C           4.2690   -7.2011    0.0000 C.3     1  UNL1        0.1141
     58 C           3.4030   -5.7011    0.0000 C.3     1  UNL1        0.1130
     59 C           3.4030   -6.7011    0.0000 C.3     1  UNL1        0.1119
     60 C           9.3470    5.3877    0.0000 C.3     1  UNL1        0.1884
     61 C           3.3671   -1.1030    0.0000 C.3     1  UNL1       -0.0440
     62 C           3.3671   -2.8351    0.0000 C.3     1  UNL1       -0.0440
     63 C          13.2578    6.2276    0.0000 C.3     1  UNL1        0.1880
     64 C           8.6763    6.1294    0.0000 C.3     1  UNL1        0.1341
     65 C           2.5369   -5.2011    0.0000 C.3     1  UNL1        0.0730
     66 C           7.6986    5.9194    0.0000 C.3     1  UNL1        0.1140
     67 C          13.5648    7.1793    0.0000 C.3     1  UNL1        0.1341
     68 C           8.0623    4.2260    0.0000 C.3     1  UNL1        0.0873
     69 C           7.3916    4.9677    0.0000 C.3     1  UNL1        0.1095
     70 C          14.5425    7.3893    0.0000 C.3     1  UNL1        0.1137
     71 C          14.9062    5.6959    0.0000 C.3     1  UNL1        0.0792
     72 C          15.2132    6.6476    0.0000 C.3     1  UNL1        0.1069
     73 C           7.7553    3.2742    0.0000 C.3     1  UNL1       -0.0361
     74 H           9.2878   -0.1297    0.0000 H       1  UNL1        0.0316
     75 H           7.0276   -2.4747    0.0000 H       1  UNL1        0.0310
     76 H          10.6157    1.0784    0.0000 H       1  UNL1        0.0316
     77 H          10.1603   -1.4764    0.0000 H       1  UNL1        0.0271
     78 H          10.7606   -0.9502    0.0000 H       1  UNL1        0.0271
     79 H           7.7772   -4.0500    0.0000 H       1  UNL1        0.0332
     80 H           7.4584    0.1021    0.0000 H       1  UNL1        0.0268
     81 H           6.8652   -0.4302    0.0000 H       1  UNL1        0.0268
     82 H           9.7214   -3.3313    0.0000 H       1  UNL1        0.0271
     83 H           9.8109   -2.5067    0.0000 H       1  UNL1        0.0271
     84 H           6.6214   -1.1761    0.0000 H       1  UNL1        0.0268
     85 H           6.7857   -1.9560    0.0000 H       1  UNL1        0.0268
     86 H          11.0244   -0.1638    0.0000 H       1  UNL1        0.0269
     87 H          10.8628    0.6179    0.0000 H       1  UNL1        0.0269
     88 H           8.3301   -4.1427    0.0000 H       1  UNL1        0.0269
     89 H           9.1417   -3.9717    0.0000 H       1  UNL1        0.0269
     90 H           7.4706    1.7563    0.0000 H       1  UNL1        0.0276
     91 H           7.6502    0.9785    0.0000 H       1  UNL1        0.0276
     92 H           9.7154   -2.0736    0.0000 H       1  UNL1        0.0235
     93 H          10.5544   -1.8187    0.0000 H       1  UNL1        0.0235
     94 H          10.2995   -0.9797    0.0000 H       1  UNL1        0.0235
     95 H           9.7173   -2.7609    0.0000 H       1  UNL1        0.0235
     96 H          10.4185   -2.2344    0.0000 H       1  UNL1        0.0235
     97 H           9.8920   -1.5332    0.0000 H       1  UNL1        0.0235
     98 H           8.9870    3.2016    0.0000 H       1  UNL1        0.0602
     99 H           8.3169    3.1300    0.0000 H       1  UNL1        0.0291
    100 H           7.7289    2.5901    0.0000 H       1  UNL1        0.0291
    101 H           7.1832    0.3373    0.0000 H       1  UNL1        0.1032
    102 H          11.2875    2.1369    0.0000 H       1  UNL1        0.0236
    103 H          11.3383    3.0122    0.0000 H       1  UNL1        0.0236
    104 H          10.8828    1.0320    0.0000 H       1  UNL1        0.0236
    105 H          11.6662    1.4258    0.0000 H       1  UNL1        0.0236
    106 H          11.2725    2.2092    0.0000 H       1  UNL1        0.0236
    107 H          10.4629    3.0630    0.0000 H       1  UNL1        0.0236
    108 H           6.9497   -2.6230    0.0000 H       1  UNL1        0.0297
    109 H           6.2594   -2.2245    0.0000 H       1  UNL1        0.0297
    110 H           5.7890   -3.6185    0.0000 H       1  UNL1        0.0589
    111 H           5.3905   -4.3088    0.0000 H       1  UNL1        0.0589
    112 H           7.9871   -4.5671    0.0000 H       1  UNL1        0.2103
    113 H           4.7844   -3.0471    0.0000 H       1  UNL1        0.0308
    114 H           5.4747   -3.4457    0.0000 H       1  UNL1        0.0308
    115 H          10.2726    4.3641    0.0000 H       1  UNL1        0.0937
    116 H          11.1857    5.4460    0.0000 H       1  UNL1        0.0675
    117 H           5.1771   -1.4321    0.0000 H       1  UNL1        0.0571
    118 H           5.1350   -5.0811    0.0000 H       1  UNL1        0.0937
    119 H          12.5793    5.1961    0.0000 H       1  UNL1        0.0651
    120 H          12.3598    2.7529    0.0000 H       1  UNL1        0.0587
    121 H          12.9510    3.2875    0.0000 H       1  UNL1        0.0587
    122 H           5.1350   -7.3211    0.0000 H       1  UNL1        0.0671
    123 H          13.0597    3.8643    0.0000 H       1  UNL1        0.0643
    124 H           3.7320   -7.5111    0.0000 H       1  UNL1        0.0648
    125 H           3.4030   -5.0811    0.0000 H       1  UNL1        0.0647
    126 H           2.8660   -6.3911    0.0000 H       1  UNL1        0.0647
    127 H           9.5373    5.9777    0.0000 H       1  UNL1        0.0938
    128 H           3.9040   -0.7930    0.0000 H       1  UNL1        0.0274
    129 H           3.0571   -0.5661    0.0000 H       1  UNL1        0.0274
    130 H           2.8301   -1.4130    0.0000 H       1  UNL1        0.0274
    131 H           2.8301   -2.5251    0.0000 H       1  UNL1        0.0274
    132 H           3.0571   -3.3720    0.0000 H       1  UNL1        0.0274
    133 H           3.9040   -3.1451    0.0000 H       1  UNL1        0.0274
    134 H           6.5380   -6.8911    0.0000 H       1  UNL1        0.2101
    135 H          14.0374    4.0743    0.0000 H       1  UNL1        0.2100
    136 H          12.8420    6.6875    0.0000 H       1  UNL1        0.0937
    137 H           8.2604    6.5892    0.0000 H       1  UNL1        0.0671
    138 H           1.9264   -5.0934    0.0000 H       1  UNL1        0.0584
    139 H           2.3249   -5.7837    0.0000 H       1  UNL1        0.0584
    140 H           3.7320   -8.5111    0.0000 H       1  UNL1        0.2100
    141 H           2.0000   -6.8911    0.0000 H       1  UNL1        0.2100
    142 H           8.4092    6.5094    0.0000 H       1  UNL1        0.0648
    143 H          13.7551    7.7694    0.0000 H       1  UNL1        0.0671
    144 H           8.4781    3.7661    0.0000 H       1  UNL1        0.0621
    145 H           6.9758    5.4276    0.0000 H       1  UNL1        0.0646
    146 H          15.1487    7.5195    0.0000 H       1  UNL1        0.0647
    147 H           8.5674    7.5410    0.0000 H       1  UNL1        0.2101
    148 H           2.0000   -3.8911    0.0000 H       1  UNL1        0.2095
    149 H          14.9292    5.0763    0.0000 H       1  UNL1        0.0587
    150 H          15.5204    5.6109    0.0000 H       1  UNL1        0.0587
    151 H          15.6291    6.1877    0.0000 H       1  UNL1        0.0643
    152 H           7.1652    3.4646    0.0000 H       1  UNL1        0.0255
    153 H           7.5650    2.6842    0.0000 H       1  UNL1        0.0255
    154 H           8.3454    3.0839    0.0000 H       1  UNL1        0.0255
    155 H           6.4217    6.5309    0.0000 H       1  UNL1        0.2100
    156 H          13.0844    8.5111    0.0000 H       1  UNL1        0.2101
    157 H           6.2236    4.1676    0.0000 H       1  UNL1        0.2100
    158 H          15.4557    8.4712    0.0000 H       1  UNL1        0.2100
    159 H          16.6068    6.3977    0.0000 H       1  UNL1        0.2100
@<TRIPOS>BOND
     1    40     1    1
     2    48     1    1
     3    39     2    1
     4     2   112    1
     5     3    42    2
     6     4    46    1
     7    51     4    1
     8     5    48    1
     9     5    53    1
    10    49     6    1
    11    60     6    1
    12     7    51    1
    13     7    58    1
    14    52     8    1
    15    63     8    1
    16    54     9    1
    17     9   134    1
    18    55    10    1
    19    10   135    1
    20    57    11    1
    21    11   140    1
    22    12    60    1
    23    12    68    1
    24    59    13    1
    25    13   141    1
    26    14    63    1
    27    14    71    1
    28    64    15    1
    29    15   147    1
    30    16    65    1
    31    16   148    1
    32    66    17    1
    33    17   155    1
    34    67    18    1
    35    18   156    1
    36    69    19    1
    37    19   157    1
    38    70    20    1
    39    20   158    1
    40    72    21    1
    41    21   159    1
    42    22    23    1
    43    22    24    1
    44    22    28    1
    45    22    37    1
    46    23    25    1
    47    23    31    1
    48    23    38    1
    49    24    26    1
    50    24    30    1
    51    24    74    1
    52    25    29    1
    53    25    32    1
    54    25    75    1
    55    26    27    1
    56    26    36    1
    57    26    42    1
    58    27    33    1
    59    27    35    1
    60    27    76    1
    61    28    33    1
    62    28    77    1
    63    28    78    1
    64    29    34    1
    65    29    39    1
    66    29    79    1
    67    30    32    1
    68    30    80    1
    69    30    81    1
    70    31    34    1
    71    31    82    1
    72    31    83    1
    73    32    84    1
    74    32    85    1
    75    33    86    1
    76    33    87    1
    77    34    88    1
    78    34    89    1
    79    35    40    1
    80    35    43    1
    81    35    44    1
    82    36    41    1
    83    36    90    1
    84    36    91    1
    85    37    92    1
    86    37    93    1
    87    37    94    1
    88    38    95    1
    89    38    96    1
    90    38    97    1
    91    39    45    1
    92    39    46    1
    93    40    41    1
    94    40    98    1
    95    41    99    1
    96    41   100    1
    97    42   101    1
    98    43   102    1
    99    43   103    1
   100    43   107    1
   101    44   104    1
   102    44   105    1
   103    44   106    1
   104    45    47    1
   105    45   108    1
   106    45   109    1
   107    46   110    1
   108    46   111    1
   109    47    50    1
   110    47   113    1
   111    47   114    1
   112    48    49    1
   113    48   115    1
   114    49    52    1
   115    49   116    1
   116    50    56    2
   117    50   117    1
   118    51    54    1
   119    51   118    1
   120    52    55    1
   121    52   119    1
   122    53    55    1
   123    53   120    1
   124    53   121    1
   125    54    57    1
   126    54   122    1
   127    55   123    1
   128    56    61    1
   129    56    62    1
   130    57    59    1
   131    57   124    1
   132    58    59    1
   133    58    65    1
   134    58   125    1
   135    59   126    1
   136    60    64    1
   137    60   127    1
   138    61   128    1
   139    61   129    1
   140    61   130    1
   141    62   131    1
   142    62   132    1
   143    62   133    1
   144    63    67    1
   145    63   136    1
   146    64    66    1
   147    64   137    1
   148    65   138    1
   149    65   139    1
   150    66    69    1
   151    66   142    1
   152    67    70    1
   153    67   143    1
   154    68    69    1
   155    68    73    1
   156    68   144    1
   157    69   145    1
   158    70    72    1
   159    70   146    1
   160    71    72    1
   161    71   149    1
   162    71   150    1
   163    72   151    1
   164    73   152    1
   165    73   153    1
   166    73   154    1
