@<TRIPOS>MOLECULE
IMPHY017791
 25 24 0 0 0
SMALL
GASTEIGER

@<TRIPOS>ATOM
      1 O           2.0000   -0.0600    0.0000 O.2     1  UNL1       -0.3008
      2 C           4.5981    0.4400    0.0000 C.3     1  UNL1       -0.0440
      3 C           5.4641   -0.0600    0.0000 C.3     1  UNL1       -0.0524
      4 C           3.7320   -0.0600    0.0000 C.3     1  UNL1        0.0117
      5 C           6.3301    0.4400    0.0000 C.3     1  UNL1       -0.0533
      6 C           7.1962   -0.0600    0.0000 C.3     1  UNL1       -0.0559
      7 C           3.7320   -1.0600    0.0000 C.3     1  UNL1       -0.0560
      8 C           8.0622    0.4400    0.0000 C.3     1  UNL1       -0.0653
      9 C           2.8660    0.4400    0.0000 C.2     1  UNL1        0.1231
     10 H           4.9966    0.9149    0.0000 H       1  UNL1        0.0272
     11 H           4.1996    0.9149    0.0000 H       1  UNL1        0.0272
     12 H           5.0656   -0.5349    0.0000 H       1  UNL1        0.0265
     13 H           5.8626   -0.5349    0.0000 H       1  UNL1        0.0265
     14 H           3.7320    0.7900    0.0000 H       1  UNL1        0.0372
     15 H           6.7287    0.9149    0.0000 H       1  UNL1        0.0265
     16 H           5.9316    0.9149    0.0000 H       1  UNL1        0.0265
     17 H           6.7976   -0.5349    0.0000 H       1  UNL1        0.0263
     18 H           7.5947   -0.5349    0.0000 H       1  UNL1        0.0263
     19 H           3.1120   -1.0600    0.0000 H       1  UNL1        0.0236
     20 H           3.7320   -1.6800    0.0000 H       1  UNL1        0.0236
     21 H           4.3520   -1.0600    0.0000 H       1  UNL1        0.0236
     22 H           8.3722   -0.0969    0.0000 H       1  UNL1        0.0230
     23 H           8.5991    0.7500    0.0000 H       1  UNL1        0.0230
     24 H           7.7522    0.9769    0.0000 H       1  UNL1        0.0230
     25 H           2.8660    1.0600    0.0000 H       1  UNL1        0.1029
@<TRIPOS>BOND
     1     1     9    2
     2     2     3    1
     3     2     4    1
     4     2    10    1
     5     2    11    1
     6     3     5    1
     7     3    12    1
     8     3    13    1
     9     4     7    1
    10     4     9    1
    11     4    14    1
    12     5     6    1
    13     5    15    1
    14     5    16    1
    15     6     8    1
    16     6    17    1
    17     6    18    1
    18     7    19    1
    19     7    20    1
    20     7    21    1
    21     8    22    1
    22     8    23    1
    23     8    24    1
    24     9    25    1
