@<TRIPOS>MOLECULE
IMPHY011608
 47 47 0 0 0
SMALL
GASTEIGER

@<TRIPOS>ATOM
      1 O           8.5991   -0.7500    0.0000 O.3     1  UNL1       -0.3914
      2 O           7.7331    0.7500    0.0000 O.2     1  UNL1       -0.2973
      3 O           4.2690    4.7500    0.0000 O.3     1  UNL1       -0.4915
      4 O           2.5369    3.7500    0.0000 O.3     1  UNL1       -0.5033
      5 C           7.7331   -2.2500    0.0000 C.3     1  UNL1       -0.0265
      6 C           7.7331   -1.2500    0.0000 C.3     1  UNL1        0.0619
      7 C           8.5991   -2.7500    0.0000 C.3     1  UNL1       -0.0507
      8 C           6.8671   -0.7500    0.0000 C.3     1  UNL1        0.0319
      9 C           8.5991   -3.7500    0.0000 C.3     1  UNL1       -0.0532
     10 C           6.8671    0.2500    0.0000 C.2     1  UNL1        0.1361
     11 C           9.4651   -4.2500    0.0000 C.3     1  UNL1       -0.0559
     12 C           6.0010    0.7500    0.0000 C.3     1  UNL1        0.0099
     13 C           6.0010    1.7500    0.0000 C.3     1  UNL1       -0.0209
     14 C           5.1350    2.2500    0.0000 C.ar    1  UNL1       -0.0433
     15 C           9.4651   -5.2500    0.0000 C.3     1  UNL1       -0.0653
     16 C           5.1350    3.2500    0.0000 C.ar    1  UNL1       -0.0131
     17 C           4.2690    1.7500    0.0000 C.ar    1  UNL1       -0.0549
     18 C           4.2690    3.7500    0.0000 C.ar    1  UNL1        0.1615
     19 C           3.4030    2.2500    0.0000 C.ar    1  UNL1       -0.0163
     20 C           3.4030    3.2500    0.0000 C.ar    1  UNL1        0.1585
     21 C           5.1350    5.2500    0.0000 C.3     1  UNL1        0.0790
     22 H           7.1225   -2.1423    0.0000 H       1  UNL1        0.0290
     23 H           7.5210   -2.8326    0.0000 H       1  UNL1        0.0290
     24 H           7.7331   -0.6300    0.0000 H       1  UNL1        0.0597
     25 H           9.2097   -2.8577    0.0000 H       1  UNL1        0.0266
     26 H           8.8112   -2.1674    0.0000 H       1  UNL1        0.0266
     27 H           6.2565   -0.6423    0.0000 H       1  UNL1        0.0367
     28 H           6.6550   -1.3326    0.0000 H       1  UNL1        0.0367
     29 H           7.9885   -3.6423    0.0000 H       1  UNL1        0.0265
     30 H           8.3871   -4.3326    0.0000 H       1  UNL1        0.0265
     31 H          10.0757   -4.3577    0.0000 H       1  UNL1        0.0263
     32 H           9.6772   -3.6674    0.0000 H       1  UNL1        0.0263
     33 H           5.3905    0.8577    0.0000 H       1  UNL1        0.0345
     34 H           5.7890    0.1674    0.0000 H       1  UNL1        0.0345
     35 H           6.6116    1.6423    0.0000 H       1  UNL1        0.0317
     36 H           6.2131    2.3326    0.0000 H       1  UNL1        0.0317
     37 H           9.1360   -1.0600    0.0000 H       1  UNL1        0.2098
     38 H           8.8451   -5.2500    0.0000 H       1  UNL1        0.0230
     39 H           9.4651   -5.8700    0.0000 H       1  UNL1        0.0230
     40 H          10.0851   -5.2500    0.0000 H       1  UNL1        0.0230
     41 H           5.6720    3.5600    0.0000 H       1  UNL1        0.0658
     42 H           4.2690    1.1300    0.0000 H       1  UNL1        0.0621
     43 H           2.8660    1.9400    0.0000 H       1  UNL1        0.0655
     44 H           2.0000    3.4400    0.0000 H       1  UNL1        0.2923
     45 H           5.4450    4.7131    0.0000 H       1  UNL1        0.0660
     46 H           5.6720    5.5600    0.0000 H       1  UNL1        0.0660
     47 H           4.8250    5.7869    0.0000 H       1  UNL1        0.0660
@<TRIPOS>BOND
     1     6     1    1
     2     1    37    1
     3     2    10    2
     4     3    18    1
     5     3    21    1
     6     4    20    1
     7     4    44    1
     8     5     6    1
     9     5     7    1
    10     5    22    1
    11     5    23    1
    12     6     8    1
    13     6    24    1
    14     7     9    1
    15     7    25    1
    16     7    26    1
    17     8    10    1
    18     8    27    1
    19     8    28    1
    20     9    11    1
    21     9    29    1
    22     9    30    1
    23    10    12    1
    24    11    15    1
    25    11    31    1
    26    11    32    1
    27    12    13    1
    28    12    33    1
    29    12    34    1
    30    13    14    1
    31    13    35    1
    32    13    36    1
    33    14    16   ar
    34    14    17   ar
    35    15    38    1
    36    15    39    1
    37    15    40    1
    38    16    18   ar
    39    16    41    1
    40    17    19   ar
    41    17    42    1
    42    18    20   ar
    43    19    20   ar
    44    19    43    1
    45    21    45    1
    46    21    46    1
    47    21    47    1
