@<TRIPOS>MOLECULE
IMPHY003078
 57 62 0 0 0
SMALL
GASTEIGER

@<TRIPOS>ATOM
      1 O          10.4652    2.1214    0.0000 O.3     1  UNL1       -0.4853
      2 O           6.9351    2.1456    0.0000 O.3     1  UNL1       -0.5063
      3 O           6.0671    0.5940    0.0000 O.3     1  UNL1       -0.4827
      4 O           6.0787   -2.4060    0.0000 O.2     1  UNL1       -0.2917
      5 O           4.3304   -2.4474    0.0000 O.3     1  UNL1       -0.5058
      6 O           2.5369    0.6045    0.0000 O.3     1  UNL1       -0.5065
      7 C          11.3312    0.6214    0.0000 C.3     1  UNL1        0.0094
      8 C          11.8390   -0.2497    0.0000 C.3     1  UNL1       -0.0282
      9 C          10.9658   -0.7538    0.0000 C.3     1  UNL1       -0.0244
     10 C          10.4652    0.1214    0.0000 C.3     1  UNL1       -0.0003
     11 C          11.3312    1.6214    0.0000 C.3     1  UNL1        0.1115
     12 C          12.5584    0.4353    0.0000 C.3     1  UNL1       -0.0457
     13 C          12.2983    1.3941    0.0000 C.3     1  UNL1       -0.0126
     14 C           9.5992    0.6214    0.0000 C.ar    1  UNL1       -0.0011
     15 C          11.4640   -1.6209    0.0000 C.3     1  UNL1       -0.0590
     16 C          10.0987   -1.2520    0.0000 C.3     1  UNL1       -0.0590
     17 C          11.6996    2.5511    0.0000 C.3     1  UNL1       -0.0246
     18 C           9.5992    1.6214    0.0000 C.ar    1  UNL1        0.1282
     19 C           8.7052    0.0868    0.0000 C.ar    1  UNL1       -0.0446
     20 C           8.7052    2.1561    0.0000 C.ar    1  UNL1        0.0222
     21 C           7.7992    0.6006    0.0000 C.ar    1  UNL1        0.0350
     22 C           7.7992    1.6423    0.0000 C.ar    1  UNL1        0.1270
     23 C           6.9351    0.0973    0.0000 C.3     1  UNL1        0.1355
     24 C           6.9389   -0.9027    0.0000 C.3     1  UNL1        0.0521
     25 C           6.0748   -1.4060    0.0000 C.2     1  UNL1        0.1740
     26 C           5.2030    0.0906    0.0000 C.ar    1  UNL1        0.1389
     27 C           5.2069   -0.9094    0.0000 C.ar    1  UNL1        0.1007
     28 C           4.3070    0.6218    0.0000 C.ar    1  UNL1        0.0225
     29 C           4.3150   -1.4475    0.0000 C.ar    1  UNL1        0.1343
     30 C           3.4030    0.1045    0.0000 C.ar    1  UNL1        0.1238
     31 C           3.4070   -0.9371    0.0000 C.ar    1  UNL1        0.0222
     32 H          11.9298    0.7831    0.0000 H       1  UNL1        0.0348
     33 H          12.2103   -0.7461    0.0000 H       1  UNL1        0.0310
     34 H          10.0259   -0.3161    0.0000 H       1  UNL1        0.0359
     35 H          12.9062   -0.0779    0.0000 H       1  UNL1        0.0269
     36 H          13.1219    0.6939    0.0000 H       1  UNL1        0.0269
     37 H          12.9152    1.4558    0.0000 H       1  UNL1        0.0304
     38 H          12.3389    2.0128    0.0000 H       1  UNL1        0.0304
     39 H          10.9264   -1.9298    0.0000 H       1  UNL1        0.0235
     40 H          11.7729   -2.1584    0.0000 H       1  UNL1        0.0235
     41 H          12.0015   -1.3120    0.0000 H       1  UNL1        0.0235
     42 H           9.7898   -0.7145    0.0000 H       1  UNL1        0.0235
     43 H           9.5611   -1.5609    0.0000 H       1  UNL1        0.0235
     44 H          10.4076   -1.7896    0.0000 H       1  UNL1        0.0235
     45 H          12.2760    2.3227    0.0000 H       1  UNL1        0.0268
     46 H          11.9280    3.1275    0.0000 H       1  UNL1        0.0268
     47 H          11.1232    2.7795    0.0000 H       1  UNL1        0.0268
     48 H           8.7124   -0.5332    0.0000 H       1  UNL1        0.0627
     49 H           8.7124    2.7761    0.0000 H       1  UNL1        0.0691
     50 H           7.4732   -0.2106    0.0000 H       1  UNL1        0.0790
     51 H           7.1532   -1.4845    0.0000 H       1  UNL1        0.0385
     52 H           7.5491   -0.7927    0.0000 H       1  UNL1        0.0385
     53 H           6.9375    2.7656    0.0000 H       1  UNL1        0.2921
     54 H           4.3118    1.2418    0.0000 H       1  UNL1        0.0691
     55 H           2.8724   -1.2512    0.0000 H       1  UNL1        0.0691
     56 H           3.7983   -2.7656    0.0000 H       1  UNL1        0.2922
     57 H           2.0000    0.2945    0.0000 H       1  UNL1        0.2921
@<TRIPOS>BOND
     1     1    11    1
     2     1    18    1
     3     2    22    1
     4     2    53    1
     5     3    23    1
     6     3    26    1
     7     4    25    2
     8     5    29    1
     9     5    56    1
    10     6    30    1
    11     6    57    1
    12     7     8    1
    13     7    10    1
    14     7    11    1
    15     7    32    1
    16     8     9    1
    17     8    12    1
    18     8    33    1
    19     9    10    1
    20     9    15    1
    21     9    16    1
    22    10    14    1
    23    10    34    1
    24    11    13    1
    25    11    17    1
    26    12    13    1
    27    12    35    1
    28    12    36    1
    29    13    37    1
    30    13    38    1
    31    14    18   ar
    32    14    19   ar
    33    15    39    1
    34    15    40    1
    35    15    41    1
    36    16    42    1
    37    16    43    1
    38    16    44    1
    39    17    45    1
    40    17    46    1
    41    17    47    1
    42    18    20   ar
    43    19    21   ar
    44    19    48    1
    45    20    22   ar
    46    20    49    1
    47    21    22   ar
    48    21    23    1
    49    23    24    1
    50    23    50    1
    51    24    25    1
    52    24    51    1
    53    24    52    1
    54    25    27    1
    55    26    27   ar
    56    26    28   ar
    57    27    29   ar
    58    28    30   ar
    59    28    54    1
    60    29    31   ar
    61    30    31   ar
    62    31    55    1
