@<TRIPOS>MOLECULE
IMPHY017449
 31 31 0 0 0
SMALL
GASTEIGER

@<TRIPOS>ATOM
      1 O           5.4641    3.5000    0.0000 O.3     1  UNL1       -0.3830
      2 O           2.8660   -1.0000    0.0000 O.3     1  UNL1       -0.4258
      3 O           4.5981   -1.0000    0.0000 O.2     1  UNL1       -0.2504
      4 C           4.5981    1.0000    0.0000 C.3     1  UNL1       -0.0409
      5 C           4.5981    2.0000    0.0000 C.3     1  UNL1       -0.0290
      6 C           3.7320    0.5000    0.0000 C.3     1  UNL1        0.0454
      7 C           5.4641    2.5000    0.0000 C.3     1  UNL1        0.0473
      8 C           3.7320   -0.5000    0.0000 C.2     1  UNL1        0.3123
      9 C           2.8660   -2.0000    0.0000 C.ar    1  UNL1        0.1316
     10 C           6.3301    4.0000    0.0000 C.3     1  UNL1        0.0364
     11 C           2.0000   -2.5000    0.0000 C.ar    1  UNL1       -0.0192
     12 C           3.7320   -2.5000    0.0000 C.ar    1  UNL1       -0.0192
     13 C           2.0000   -3.5000    0.0000 C.ar    1  UNL1       -0.0583
     14 C           3.7320   -3.5000    0.0000 C.ar    1  UNL1       -0.0583
     15 C           2.8660   -4.0000    0.0000 C.ar    1  UNL1       -0.0615
     16 H           4.8101    0.4174    0.0000 H       1  UNL1        0.0271
     17 H           5.2087    1.1077    0.0000 H       1  UNL1        0.0271
     18 H           4.3860    2.5826    0.0000 H       1  UNL1        0.0287
     19 H           3.9875    1.8923    0.0000 H       1  UNL1        0.0287
     20 H           3.5200    1.0826    0.0000 H       1  UNL1        0.0378
     21 H           3.1215    0.3923    0.0000 H       1  UNL1        0.0378
     22 H           5.6762    1.9174    0.0000 H       1  UNL1        0.0560
     23 H           6.0747    2.6077    0.0000 H       1  UNL1        0.0560
     24 H           6.6401    3.4631    0.0000 H       1  UNL1        0.0523
     25 H           6.8671    4.3100    0.0000 H       1  UNL1        0.0523
     26 H           6.0201    4.5369    0.0000 H       1  UNL1        0.0523
     27 H           1.4631   -2.1900    0.0000 H       1  UNL1        0.0654
     28 H           4.2690   -2.1900    0.0000 H       1  UNL1        0.0654
     29 H           1.4631   -3.8100    0.0000 H       1  UNL1        0.0619
     30 H           4.2690   -3.8100    0.0000 H       1  UNL1        0.0619
     31 H           2.8660   -4.6200    0.0000 H       1  UNL1        0.0618
@<TRIPOS>BOND
     1     1     7    1
     2     1    10    1
     3     2     8    1
     4     2     9    1
     5     3     8    2
     6     4     5    1
     7     4     6    1
     8     4    16    1
     9     4    17    1
    10     5     7    1
    11     5    18    1
    12     5    19    1
    13     6     8    1
    14     6    20    1
    15     6    21    1
    16     7    22    1
    17     7    23    1
    18     9    11   ar
    19     9    12   ar
    20    10    24    1
    21    10    25    1
    22    10    26    1
    23    11    13   ar
    24    11    27    1
    25    12    14   ar
    26    12    28    1
    27    13    15   ar
    28    13    29    1
    29    14    15   ar
    30    14    30    1
    31    15    31    1
