@<TRIPOS>MOLECULE
IMPHY001133
 150 154 0 0 0
SMALL
GASTEIGER

@<TRIPOS>ATOM
      1 O          12.0632   -1.8450    0.0000 O.3     1  UNL1       -0.3402
      2 O          10.3312   -1.8450    0.0000 O.3     1  UNL1       -0.3431
      3 O          10.3312   -4.8450    0.0000 O.3     1  UNL1       -0.3400
      4 O           8.5991   -3.8450    0.0000 O.3     1  UNL1       -0.3402
      5 O          11.1972    0.6550    0.0000 O.3     1  UNL1       -0.3431
      6 O          12.0632    2.1550    0.0000 O.3     1  UNL1       -0.3378
      7 O          12.0632   -3.8450    0.0000 O.3     1  UNL1       -0.3841
      8 O          12.0632   -4.8450    0.0000 O.3     1  UNL1       -0.3405
      9 O           7.7331   -2.3450    0.0000 O.3     1  UNL1       -0.3431
     10 O          10.3312    4.1550    0.0000 O.3     1  UNL1       -0.3405
     11 O          13.7953   -0.8450    0.0000 O.3     1  UNL1       -0.3864
     12 O          13.7953    1.1550    0.0000 O.3     1  UNL1       -0.3841
     13 O          12.0632    4.1550    0.0000 O.3     1  UNL1       -0.3454
     14 O          10.3312    1.1550    0.0000 O.3     1  UNL1       -0.3864
     15 O          10.3312   -6.8450    0.0000 O.3     1  UNL1       -0.3841
     16 O           6.8671   -4.8450    0.0000 O.3     1  UNL1       -0.3841
     17 O          12.0632   -7.8450    0.0000 O.3     1  UNL1       -0.3864
     18 O           8.5991    2.1550    0.0000 O.3     1  UNL1       -0.3865
     19 O           5.1350   -3.8450    0.0000 O.3     1  UNL1       -0.3864
     20 O          13.7953   -6.8450    0.0000 O.3     1  UNL1       -0.3865
     21 O           5.1350   -1.8450    0.0000 O.3     1  UNL1       -0.3866
     22 O          13.7953   -3.8450    0.0000 O.3     1  UNL1       -0.3924
     23 O           7.7331    3.6550    0.0000 O.3     1  UNL1       -0.3924
     24 O           2.5369    6.6550    0.0000 O.3     1  UNL1       -0.4806
     25 O           3.4030    8.1550    0.0000 O.2     1  UNL1       -0.2510
     26 C          10.3312   -3.8450    0.0000 C.3     1  UNL1        0.1209
     27 C           9.4651   -3.3450    0.0000 C.3     1  UNL1        0.1164
     28 C          11.1972   -3.3450    0.0000 C.3     1  UNL1        0.1345
     29 C          11.1972   -2.3450    0.0000 C.3     1  UNL1        0.1883
     30 C          12.0632   -0.8450    0.0000 C.3     1  UNL1        0.1160
     31 C           9.4651   -2.3450    0.0000 C.3     1  UNL1        0.0877
     32 C          12.9292   -0.3450    0.0000 C.3     1  UNL1        0.1143
     33 C          11.1972   -0.3450    0.0000 C.3     1  UNL1        0.0877
     34 C          12.9292    0.6550    0.0000 C.3     1  UNL1        0.1341
     35 C          12.0632    1.1550    0.0000 C.3     1  UNL1        0.1884
     36 C          11.1972    2.6550    0.0000 C.3     1  UNL1        0.1406
     37 C          11.1972   -5.3450    0.0000 C.3     1  UNL1        0.1884
     38 C           7.7331   -3.3450    0.0000 C.3     1  UNL1        0.1883
     39 C          11.1972   -6.3450    0.0000 C.3     1  UNL1        0.1341
     40 C          10.3312    2.1550    0.0000 C.3     1  UNL1        0.1144
     41 C           6.8671   -3.8450    0.0000 C.3     1  UNL1        0.1341
     42 C           8.5991   -1.8450    0.0000 C.3     1  UNL1       -0.0360
     43 C          11.1972    3.6550    0.0000 C.3     1  UNL1        0.1886
     44 C          12.0632   -6.8450    0.0000 C.3     1  UNL1        0.1141
     45 C           9.4651    2.6550    0.0000 C.3     1  UNL1        0.1119
     46 C           6.0010   -3.3450    0.0000 C.3     1  UNL1        0.1140
     47 C          12.9292   -6.3450    0.0000 C.3     1  UNL1        0.1119
     48 C          12.9292   -5.3450    0.0000 C.3     1  UNL1        0.1130
     49 C           9.4651    3.6550    0.0000 C.3     1  UNL1        0.1130
     50 C           6.0010   -2.3450    0.0000 C.3     1  UNL1        0.1095
     51 C          10.3312   -0.8450    0.0000 C.3     1  UNL1       -0.0361
     52 C           6.8671   -1.8450    0.0000 C.3     1  UNL1        0.0873
     53 C          12.0632    5.1550    0.0000 C.3     1  UNL1        0.0618
     54 C          13.7953   -4.8450    0.0000 C.3     1  UNL1        0.0730
     55 C           8.5991    4.1550    0.0000 C.3     1  UNL1        0.0730
     56 C           6.8671   -0.8450    0.0000 C.3     1  UNL1       -0.0361
     57 C          11.1972    5.6550    0.0000 C.3     1  UNL1       -0.0265
     58 C          12.9292    5.6550    0.0000 C.3     1  UNL1       -0.0267
     59 C          11.1972    6.6550    0.0000 C.3     1  UNL1       -0.0507
     60 C          12.9292    6.6550    0.0000 C.3     1  UNL1       -0.0536
     61 C          10.3312    7.1550    0.0000 C.3     1  UNL1       -0.0530
     62 C           9.4651    6.6550    0.0000 C.3     1  UNL1       -0.0531
     63 C          12.0632    7.1550    0.0000 C.3     1  UNL1       -0.0652
     64 C           8.5991    7.1550    0.0000 C.3     1  UNL1       -0.0531
     65 C           7.7331    6.6550    0.0000 C.3     1  UNL1       -0.0531
     66 C           6.8671    7.1550    0.0000 C.3     1  UNL1       -0.0530
     67 C           6.0010    6.6550    0.0000 C.3     1  UNL1       -0.0526
     68 C           5.1350    7.1550    0.0000 C.3     1  UNL1       -0.0430
     69 C           4.2690    6.6550    0.0000 C.3     1  UNL1        0.0448
     70 C           3.4030    7.1550    0.0000 C.2     1  UNL1        0.3047
     71 H           9.7942   -4.1550    0.0000 H       1  UNL1        0.0651
     72 H           8.9282   -3.0350    0.0000 H       1  UNL1        0.0650
     73 H          11.7341   -3.0350    0.0000 H       1  UNL1        0.0671
     74 H          11.1972   -1.7250    0.0000 H       1  UNL1        0.0938
     75 H          12.6002   -1.1550    0.0000 H       1  UNL1        0.0650
     76 H           9.4651   -1.7250    0.0000 H       1  UNL1        0.0621
     77 H          13.4662   -0.0350    0.0000 H       1  UNL1        0.0648
     78 H          10.6603   -0.0350    0.0000 H       1  UNL1        0.0621
     79 H          12.9292    1.2750    0.0000 H       1  UNL1        0.0671
     80 H          11.5263    1.4650    0.0000 H       1  UNL1        0.0938
     81 H          11.7341    2.9650    0.0000 H       1  UNL1        0.0675
     82 H          11.1972   -4.7250    0.0000 H       1  UNL1        0.0938
     83 H           7.7331   -3.9650    0.0000 H       1  UNL1        0.0938
     84 H          11.1972   -6.9650    0.0000 H       1  UNL1        0.0671
     85 H           9.7942    1.8450    0.0000 H       1  UNL1        0.0648
     86 H           6.3301   -4.1550    0.0000 H       1  UNL1        0.0671
     87 H          11.1972    4.2750    0.0000 H       1  UNL1        0.0938
     88 H           8.9091   -1.3081    0.0000 H       1  UNL1        0.0255
     89 H           8.0622   -1.5350    0.0000 H       1  UNL1        0.0255
     90 H           8.2891   -2.3819    0.0000 H       1  UNL1        0.0255
     91 H          12.6002   -7.1550    0.0000 H       1  UNL1        0.0648
     92 H           8.9282    2.9650    0.0000 H       1  UNL1        0.0647
     93 H           5.4641   -3.0350    0.0000 H       1  UNL1        0.0648
     94 H          13.4662   -6.0350    0.0000 H       1  UNL1        0.0647
     95 H          12.9292   -4.7250    0.0000 H       1  UNL1        0.0647
     96 H           9.4651    4.2750    0.0000 H       1  UNL1        0.0647
     97 H           6.0010   -1.7250    0.0000 H       1  UNL1        0.0646
     98 H          10.0212   -0.3081    0.0000 H       1  UNL1        0.0255
     99 H           9.7942   -1.1550    0.0000 H       1  UNL1        0.0255
    100 H          10.6412   -1.3819    0.0000 H       1  UNL1        0.0255
    101 H           7.4040   -1.5350    0.0000 H       1  UNL1        0.0621
    102 H          12.6002   -3.5350    0.0000 H       1  UNL1        0.2101
    103 H          14.3322   -0.5350    0.0000 H       1  UNL1        0.2100
    104 H          13.7953    1.7750    0.0000 H       1  UNL1        0.2101
    105 H          12.6002    4.8450    0.0000 H       1  UNL1        0.0597
    106 H          14.0073   -5.4276    0.0000 H       1  UNL1        0.0584
    107 H          14.4058   -4.7373    0.0000 H       1  UNL1        0.0584
    108 H           8.9976    4.6300    0.0000 H       1  UNL1        0.0584
    109 H           8.2006    4.6300    0.0000 H       1  UNL1        0.0584
    110 H           7.4871   -0.8450    0.0000 H       1  UNL1        0.0255
    111 H           6.8671   -0.2250    0.0000 H       1  UNL1        0.0255
    112 H           6.2471   -0.8450    0.0000 H       1  UNL1        0.0255
    113 H           9.7942    0.8450    0.0000 H       1  UNL1        0.2100
    114 H          10.3312   -7.4650    0.0000 H       1  UNL1        0.2101
    115 H          10.5866    5.7627    0.0000 H       1  UNL1        0.0290
    116 H          10.9851    5.0724    0.0000 H       1  UNL1        0.0290
    117 H           6.3301   -5.1550    0.0000 H       1  UNL1        0.2101
    118 H          13.1413    5.0724    0.0000 H       1  UNL1        0.0290
    119 H          13.5398    5.7627    0.0000 H       1  UNL1        0.0290
    120 H          12.6002   -8.1550    0.0000 H       1  UNL1        0.2100
    121 H           8.5991    1.5350    0.0000 H       1  UNL1        0.2100
    122 H           4.5981   -3.5350    0.0000 H       1  UNL1        0.2100
    123 H          14.3322   -6.5350    0.0000 H       1  UNL1        0.2100
    124 H           5.1350   -1.2250    0.0000 H       1  UNL1        0.2100
    125 H          11.8078    6.5473    0.0000 H       1  UNL1        0.0266
    126 H          11.4092    7.2376    0.0000 H       1  UNL1        0.0266
    127 H          13.5398    6.5473    0.0000 H       1  UNL1        0.0263
    128 H          13.1413    7.2376    0.0000 H       1  UNL1        0.0263
    129 H          10.7297    7.6300    0.0000 H       1  UNL1        0.0265
    130 H           9.9326    7.6300    0.0000 H       1  UNL1        0.0265
    131 H          14.3322   -3.5350    0.0000 H       1  UNL1        0.2095
    132 H           7.1962    3.9650    0.0000 H       1  UNL1        0.2095
    133 H           9.0666    6.1800    0.0000 H       1  UNL1        0.0265
    134 H           9.8637    6.1800    0.0000 H       1  UNL1        0.0265
    135 H          12.3732    7.6919    0.0000 H       1  UNL1        0.0230
    136 H          11.5263    7.4650    0.0000 H       1  UNL1        0.0230
    137 H          11.7532    6.6181    0.0000 H       1  UNL1        0.0230
    138 H           8.9976    7.6300    0.0000 H       1  UNL1        0.0265
    139 H           8.2006    7.6300    0.0000 H       1  UNL1        0.0265
    140 H           7.3346    6.1800    0.0000 H       1  UNL1        0.0265
    141 H           8.1316    6.1800    0.0000 H       1  UNL1        0.0265
    142 H           7.2656    7.6300    0.0000 H       1  UNL1        0.0265
    143 H           6.4685    7.6300    0.0000 H       1  UNL1        0.0265
    144 H           5.6025    6.1800    0.0000 H       1  UNL1        0.0265
    145 H           6.3996    6.1800    0.0000 H       1  UNL1        0.0265
    146 H           5.5335    7.6300    0.0000 H       1  UNL1        0.0270
    147 H           4.7365    7.6300    0.0000 H       1  UNL1        0.0270
    148 H           3.8705    6.1800    0.0000 H       1  UNL1        0.0377
    149 H           4.6675    6.1800    0.0000 H       1  UNL1        0.0377
    150 H           2.0000    6.9650    0.0000 H       1  UNL1        0.2951
@<TRIPOS>BOND
     1    29     1    1
     2    30     1    1
     3     2    29    1
     4     2    31    1
     5    26     3    1
     6    37     3    1
     7    27     4    1
     8    38     4    1
     9     5    33    1
    10     5    35    1
    11    35     6    1
    12    36     6    1
    13    28     7    1
    14     7   102    1
    15     8    37    1
    16     8    48    1
    17     9    38    1
    18     9    52    1
    19    10    43    1
    20    10    49    1
    21    32    11    1
    22    11   103    1
    23    34    12    1
    24    12   104    1
    25    43    13    1
    26    53    13    1
    27    40    14    1
    28    14   113    1
    29    39    15    1
    30    15   114    1
    31    41    16    1
    32    16   117    1
    33    44    17    1
    34    17   120    1
    35    45    18    1
    36    18   121    1
    37    46    19    1
    38    19   122    1
    39    47    20    1
    40    20   123    1
    41    50    21    1
    42    21   124    1
    43    22    54    1
    44    22   131    1
    45    23    55    1
    46    23   132    1
    47    24    70    1
    48    24   150    1
    49    25    70    2
    50    26    27    1
    51    26    28    1
    52    26    71    1
    53    27    31    1
    54    27    72    1
    55    28    29    1
    56    28    73    1
    57    29    74    1
    58    30    32    1
    59    30    33    1
    60    30    75    1
    61    31    42    1
    62    31    76    1
    63    32    34    1
    64    32    77    1
    65    33    51    1
    66    33    78    1
    67    34    35    1
    68    34    79    1
    69    35    80    1
    70    36    40    1
    71    36    43    1
    72    36    81    1
    73    37    39    1
    74    37    82    1
    75    38    41    1
    76    38    83    1
    77    39    44    1
    78    39    84    1
    79    40    45    1
    80    40    85    1
    81    41    46    1
    82    41    86    1
    83    42    88    1
    84    42    89    1
    85    42    90    1
    86    43    87    1
    87    44    47    1
    88    44    91    1
    89    45    49    1
    90    45    92    1
    91    46    50    1
    92    46    93    1
    93    47    48    1
    94    47    94    1
    95    48    54    1
    96    48    95    1
    97    49    55    1
    98    49    96    1
    99    50    52    1
   100    50    97    1
   101    51    98    1
   102    51    99    1
   103    51   100    1
   104    52    56    1
   105    52   101    1
   106    53    57    1
   107    53    58    1
   108    53   105    1
   109    54   106    1
   110    54   107    1
   111    55   108    1
   112    55   109    1
   113    56   110    1
   114    56   111    1
   115    56   112    1
   116    57    59    1
   117    57   115    1
   118    57   116    1
   119    58    60    1
   120    58   118    1
   121    58   119    1
   122    59    61    1
   123    59   125    1
   124    59   126    1
   125    60    63    1
   126    60   127    1
   127    60   128    1
   128    61    62    1
   129    61   129    1
   130    61   130    1
   131    62    64    1
   132    62   133    1
   133    62   134    1
   134    63   135    1
   135    63   136    1
   136    63   137    1
   137    64    65    1
   138    64   138    1
   139    64   139    1
   140    65    66    1
   141    65   140    1
   142    65   141    1
   143    66    67    1
   144    66   142    1
   145    66   143    1
   146    67    68    1
   147    67   144    1
   148    67   145    1
   149    68    69    1
   150    68   146    1
   151    68   147    1
   152    69    70    1
   153    69   148    1
   154    69   149    1
