@<TRIPOS>MOLECULE
IMPHY013564
 139 145 0 0 0
SMALL
GASTEIGER

@<TRIPOS>ATOM
      1 O           2.5369    4.2172    0.0000 O.3     1  UNL1       -0.3910
      2 O           5.2122   -3.5350    0.0000 O.3     1  UNL1       -0.3448
      3 O           3.9608    6.2592    0.0000 O.3     1  UNL1       -0.3874
      4 O           5.2523    6.8584    0.0000 O.3     1  UNL1       -0.4549
      5 O           2.8130    5.5180    0.0000 O.3     1  UNL1       -0.3943
      6 O           2.7681   -2.8433    0.0000 O.3     1  UNL1       -0.3944
      7 O           6.9443   -3.5350    0.0000 O.3     1  UNL1       -0.3315
      8 O           5.2122   -5.5350    0.0000 O.3     1  UNL1       -0.3841
      9 O           6.9843    6.8450    0.0000 O.2     1  UNL1       -0.2453
     10 O           6.9443   -6.5350    0.0000 O.3     1  UNL1       -0.3400
     11 O           8.6763   -5.5350    0.0000 O.3     1  UNL1       -0.3860
     12 O           9.5424   -4.0350    0.0000 O.3     1  UNL1       -0.4788
     13 O           8.6763   -2.5349    0.0000 O.2     1  UNL1       -0.2480
     14 O           5.2122   -6.5350    0.0000 O.3     1  UNL1       -0.3405
     15 O           6.9443   -8.5350    0.0000 O.3     1  UNL1       -0.3841
     16 O           5.2122   -9.5350    0.0000 O.3     1  UNL1       -0.3864
     17 O           3.4802   -8.5350    0.0000 O.3     1  UNL1       -0.3865
     18 O           2.6142   -7.0350    0.0000 O.3     1  UNL1       -0.3924
     19 C           4.3112    1.1653    0.0000 C.3     1  UNL1       -0.0193
     20 C           5.1752    0.6619    0.0000 C.3     1  UNL1       -0.0257
     21 C           5.1873   -0.3796    0.0000 C.3     1  UNL1       -0.0249
     22 C           4.3150    2.1653    0.0000 C.3     1  UNL1       -0.0028
     23 C           4.2872   -0.9039    0.0000 C.3     1  UNL1       -0.0255
     24 C           3.3992    0.6619    0.0000 C.3     1  UNL1       -0.0463
     25 C           5.1830    2.6619    0.0000 C.2     1  UNL1       -0.0631
     26 C           5.2030    3.7034    0.0000 C.3     1  UNL1       -0.0062
     27 C           4.3070    4.2346    0.0000 C.3     1  UNL1        0.0556
     28 C           3.3872   -0.3796    0.0000 C.3     1  UNL1       -0.0485
     29 C           4.2747   -1.9888    0.0000 C.3     1  UNL1        0.0206
     30 C           3.4070    2.6756    0.0000 C.3     1  UNL1       -0.0165
     31 C           6.0432    1.1586    0.0000 C.3     1  UNL1       -0.0306
     32 C           6.1372   -0.9039    0.0000 C.3     1  UNL1       -0.0447
     33 C           3.4030    3.7172    0.0000 C.3     1  UNL1        0.0668
     34 C           3.3270    1.3427    0.0000 C.3     1  UNL1       -0.0585
     35 C           5.2122   -2.5349    0.0000 C.3     1  UNL1        0.0695
     36 C           6.0470    2.1586    0.0000 C.2     1  UNL1       -0.0836
     37 C           6.0514    0.1237    0.0000 C.3     1  UNL1       -0.0590
     38 C           6.1498   -1.9888    0.0000 C.3     1  UNL1       -0.0254
     39 C           6.1570    4.2203    0.0000 C.3     1  UNL1       -0.0371
     40 C           3.3295    1.9954    0.0000 C.3     1  UNL1       -0.0552
     41 C           4.3029    5.3195    0.0000 C.3     1  UNL1        0.1032
     42 C           6.1779    5.3051    0.0000 C.3     1  UNL1        0.0052
     43 C           5.2446    5.8584    0.0000 C.3     1  UNL1        0.1349
     44 C           3.4468    4.7446    0.0000 C.3     1  UNL1        0.0552
     45 C           3.2747   -1.9811    0.0000 C.3     1  UNL1        0.0522
     46 C           3.7680   -2.8510    0.0000 C.3     1  UNL1       -0.0548
     47 C           7.1778    5.2897    0.0000 C.3     1  UNL1       -0.0563
     48 C           6.6912    6.1633    0.0000 C.3     1  UNL1       -0.0563
     49 C           6.0782   -4.0350    0.0000 C.3     1  UNL1        0.1888
     50 C           6.0782   -5.0350    0.0000 C.3     1  UNL1        0.1345
     51 C           6.1221    7.3517    0.0000 C.2     1  UNL1        0.3349
     52 C           6.9443   -5.5350    0.0000 C.3     1  UNL1        0.1211
     53 C           7.8103   -4.0350    0.0000 C.3     1  UNL1        0.1859
     54 C           7.8103   -5.0350    0.0000 C.3     1  UNL1        0.1205
     55 C           6.1298    8.3517    0.0000 C.2     1  UNL1        0.0293
     56 C           8.6763   -3.5350    0.0000 C.2     1  UNL1        0.3367
     57 C           5.2677    8.8583    0.0000 C.3     1  UNL1       -0.0333
     58 C           6.9997    8.8450    0.0000 C.2     1  UNL1       -0.0774
     59 C           6.0782   -7.0350    0.0000 C.3     1  UNL1        0.1884
     60 C           6.0782   -8.0350    0.0000 C.3     1  UNL1        0.1341
     61 C           7.0074    9.8450    0.0000 C.3     1  UNL1       -0.0461
     62 C           5.2122   -8.5350    0.0000 C.3     1  UNL1        0.1141
     63 C           4.3462   -7.0350    0.0000 C.3     1  UNL1        0.1130
     64 C           4.3462   -8.0350    0.0000 C.3     1  UNL1        0.1119
     65 C           3.4802   -6.5350    0.0000 C.3     1  UNL1        0.0730
     66 H           5.9130    0.2398    0.0000 H       1  UNL1        0.0315
     67 H           3.5479   -1.3232    0.0000 H       1  UNL1        0.0313
     68 H           3.1969    1.2480    0.0000 H       1  UNL1        0.0271
     69 H           2.7872    0.5629    0.0000 H       1  UNL1        0.0271
     70 H           5.9291    3.2614    0.0000 H       1  UNL1        0.0354
     71 H           2.7776   -0.2665    0.0000 H       1  UNL1        0.0268
     72 H           3.1714   -0.9609    0.0000 H       1  UNL1        0.0268
     73 H           2.7957    2.7794    0.0000 H       1  UNL1        0.0299
     74 H           3.2002    2.0911    0.0000 H       1  UNL1        0.0299
     75 H           6.2530    0.5752    0.0000 H       1  UNL1        0.0310
     76 H           6.6542    1.2639    0.0000 H       1  UNL1        0.0310
     77 H           6.7492   -1.0029    0.0000 H       1  UNL1        0.0271
     78 H           6.3395   -0.3178    0.0000 H       1  UNL1        0.0271
     79 H           2.8666    3.4062    0.0000 H       1  UNL1        0.0601
     80 H           3.4370    1.9529    0.0000 H       1  UNL1        0.0235
     81 H           2.7169    1.4527    0.0000 H       1  UNL1        0.0235
     82 H           3.2170    0.7325    0.0000 H       1  UNL1        0.0235
     83 H           4.6747   -2.8439    0.0000 H       1  UNL1        0.0603
     84 H           6.5852    2.4665    0.0000 H       1  UNL1        0.0572
     85 H           6.3635   -0.4120    0.0000 H       1  UNL1        0.0235
     86 H           6.5871    0.4358    0.0000 H       1  UNL1        0.0235
     87 H           5.7393    0.6594    0.0000 H       1  UNL1        0.0235
     88 H           6.3656   -2.5701    0.0000 H       1  UNL1        0.0290
     89 H           6.7594   -1.8757    0.0000 H       1  UNL1        0.0290
     90 H           6.3547    3.6327    0.0000 H       1  UNL1        0.0278
     91 H           6.7698    4.3146    0.0000 H       1  UNL1        0.0278
     92 H           3.2243    2.6064    0.0000 H       1  UNL1        0.0238
     93 H           2.7186    1.8902    0.0000 H       1  UNL1        0.0238
     94 H           3.4348    1.3844    0.0000 H       1  UNL1        0.0238
     95 H           3.6925    5.2107    0.0000 H       1  UNL1        0.0638
     96 H           4.7094    6.1715    0.0000 H       1  UNL1        0.0766
     97 H           2.8509    4.5736    0.0000 H       1  UNL1        0.0564
     98 H           3.8508    5.2149    0.0000 H       1  UNL1        0.0564
     99 H           3.3871   -1.3714    0.0000 H       1  UNL1        0.0563
    100 H           2.6938   -1.7646    0.0000 H       1  UNL1        0.0563
    101 H           3.2335   -2.5368    0.0000 H       1  UNL1        0.0237
    102 H           3.4539   -3.3855    0.0000 H       1  UNL1        0.0237
    103 H           4.3026   -3.1651    0.0000 H       1  UNL1        0.0237
    104 H           2.0000    3.9072    0.0000 H       1  UNL1        0.2098
    105 H           7.1682    4.6697    0.0000 H       1  UNL1        0.0236
    106 H           7.7977    5.2801    0.0000 H       1  UNL1        0.0236
    107 H           7.1873    5.9096    0.0000 H       1  UNL1        0.0236
    108 H           7.2233    5.8451    0.0000 H       1  UNL1        0.0236
    109 H           7.0094    6.6954    0.0000 H       1  UNL1        0.0236
    110 H           6.1591    6.4816    0.0000 H       1  UNL1        0.0236
    111 H           4.3594    6.7342    0.0000 H       1  UNL1        0.2100
    112 H           2.2012    5.4174    0.0000 H       1  UNL1        0.2094
    113 H           6.0782   -3.4150    0.0000 H       1  UNL1        0.0938
    114 H           2.1481   -2.8385    0.0000 H       1  UNL1        0.2094
    115 H           6.0782   -5.6550    0.0000 H       1  UNL1        0.0671
    116 H           7.4812   -5.8450    0.0000 H       1  UNL1        0.0652
    117 H           7.8103   -3.4150    0.0000 H       1  UNL1        0.0741
    118 H           8.3472   -4.7250    0.0000 H       1  UNL1        0.0652
    119 H           4.6753   -5.2250    0.0000 H       1  UNL1        0.2101
    120 H           5.5818    9.3929    0.0000 H       1  UNL1        0.0280
    121 H           4.7332    9.1725    0.0000 H       1  UNL1        0.0280
    122 H           4.9536    8.3238    0.0000 H       1  UNL1        0.0280
    123 H           8.6763   -6.1550    0.0000 H       1  UNL1        0.2100
    124 H           7.5342    8.5308    0.0000 H       1  UNL1        0.0574
    125 H           6.0782   -6.4150    0.0000 H       1  UNL1        0.0938
    126 H           6.0782   -8.6550    0.0000 H       1  UNL1        0.0671
    127 H           7.6274    9.8402    0.0000 H       1  UNL1        0.0272
    128 H           7.0122   10.4649    0.0000 H       1  UNL1        0.0272
    129 H           6.3874    9.8497    0.0000 H       1  UNL1        0.0272
    130 H          10.0793   -3.7250    0.0000 H       1  UNL1        0.2951
    131 H           4.6753   -8.8450    0.0000 H       1  UNL1        0.0648
    132 H           4.3462   -6.4150    0.0000 H       1  UNL1        0.0647
    133 H           3.8093   -7.7250    0.0000 H       1  UNL1        0.0647
    134 H           7.4812   -8.2250    0.0000 H       1  UNL1        0.2101
    135 H           3.8787   -6.0600    0.0000 H       1  UNL1        0.0584
    136 H           3.0816   -6.0600    0.0000 H       1  UNL1        0.0584
    137 H           5.7492   -9.8450    0.0000 H       1  UNL1        0.2100
    138 H           3.4802   -9.1550    0.0000 H       1  UNL1        0.2100
    139 H           2.0772   -6.7250    0.0000 H       1  UNL1        0.2095
@<TRIPOS>BOND
     1    33     1    1
     2     1   104    1
     3    35     2    1
     4    49     2    1
     5    41     3    1
     6     3   111    1
     7    43     4    1
     8     4    51    1
     9     5    44    1
    10     5   112    1
    11     6    45    1
    12     6   114    1
    13     7    49    1
    14     7    53    1
    15    50     8    1
    16     8   119    1
    17     9    51    2
    18    52    10    1
    19    59    10    1
    20    54    11    1
    21    11   123    1
    22    12    56    1
    23    12   130    1
    24    13    56    2
    25    14    59    1
    26    14    63    1
    27    60    15    1
    28    15   134    1
    29    62    16    1
    30    16   137    1
    31    64    17    1
    32    17   138    1
    33    18    65    1
    34    18   139    1
    35    19    20    1
    36    19    22    1
    37    19    24    1
    38    19    34    1
    39    20    21    1
    40    20    31    1
    41    20    66    1
    42    21    23    1
    43    21    32    1
    44    21    37    1
    45    22    25    1
    46    22    30    1
    47    22    40    1
    48    23    28    1
    49    23    29    1
    50    23    67    1
    51    24    28    1
    52    24    68    1
    53    24    69    1
    54    25    26    1
    55    25    36    2
    56    26    27    1
    57    26    39    1
    58    26    70    1
    59    27    33    1
    60    27    41    1
    61    27    44    1
    62    28    71    1
    63    28    72    1
    64    29    35    1
    65    29    45    1
    66    29    46    1
    67    30    33    1
    68    30    73    1
    69    30    74    1
    70    31    36    1
    71    31    75    1
    72    31    76    1
    73    32    38    1
    74    32    77    1
    75    32    78    1
    76    33    79    1
    77    34    80    1
    78    34    81    1
    79    34    82    1
    80    35    38    1
    81    35    83    1
    82    36    84    1
    83    37    85    1
    84    37    86    1
    85    37    87    1
    86    38    88    1
    87    38    89    1
    88    39    42    1
    89    39    90    1
    90    39    91    1
    91    40    92    1
    92    40    93    1
    93    40    94    1
    94    41    43    1
    95    41    95    1
    96    42    43    1
    97    42    47    1
    98    42    48    1
    99    43    96    1
   100    44    97    1
   101    44    98    1
   102    45    99    1
   103    45   100    1
   104    46   101    1
   105    46   102    1
   106    46   103    1
   107    47   105    1
   108    47   106    1
   109    47   107    1
   110    48   108    1
   111    48   109    1
   112    48   110    1
   113    49    50    1
   114    49   113    1
   115    50    52    1
   116    50   115    1
   117    51    55    1
   118    52    54    1
   119    52   116    1
   120    53    54    1
   121    53    56    1
   122    53   117    1
   123    54   118    1
   124    55    57    1
   125    55    58    2
   126    57   120    1
   127    57   121    1
   128    57   122    1
   129    58    61    1
   130    58   124    1
   131    59    60    1
   132    59   125    1
   133    60    62    1
   134    60   126    1
   135    61   127    1
   136    61   128    1
   137    61   129    1
   138    62    64    1
   139    62   131    1
   140    63    64    1
   141    63    65    1
   142    63   132    1
   143    64   133    1
   144    65   135    1
   145    65   136    1
