@<TRIPOS>MOLECULE
IMPHY016447
 20 19 0 0 0
SMALL
GASTEIGER

@<TRIPOS>ATOM
      1 O           6.3301   -0.1270    0.0000 O.2     1  UNL1       -0.2963
      2 C           2.8660   -0.1270    0.0000 C.3     1  UNL1       -0.0193
      3 C           2.0000   -0.6270    0.0000 C.3     1  UNL1       -0.0566
      4 C           3.3660   -0.9930    0.0000 C.3     1  UNL1       -0.0566
      5 C           2.3660    0.7390    0.0000 C.3     1  UNL1       -0.0566
      6 C           3.7320    0.3730    0.0000 C.2     1  UNL1       -0.0756
      7 C           4.5981   -0.1270    0.0000 C.2     1  UNL1       -0.0259
      8 C           5.4641    0.3730    0.0000 C.2     1  UNL1        0.1428
      9 H           1.6900   -0.0901    0.0000 H       1  UNL1        0.0238
     10 H           1.4631   -0.9370    0.0000 H       1  UNL1        0.0238
     11 H           2.3100   -1.1639    0.0000 H       1  UNL1        0.0238
     12 H           2.8291   -1.3030    0.0000 H       1  UNL1        0.0238
     13 H           3.6760   -1.5300    0.0000 H       1  UNL1        0.0238
     14 H           3.9030   -0.6830    0.0000 H       1  UNL1        0.0238
     15 H           2.9030    1.0490    0.0000 H       1  UNL1        0.0238
     16 H           2.0560    1.2760    0.0000 H       1  UNL1        0.0238
     17 H           1.8291    0.4290    0.0000 H       1  UNL1        0.0238
     18 H           3.7320    0.9930    0.0000 H       1  UNL1        0.0578
     19 H           4.5981   -0.7470    0.0000 H       1  UNL1        0.0646
     20 H           5.4641    0.9930    0.0000 H       1  UNL1        0.1075
@<TRIPOS>BOND
     1     1     8    2
     2     2     3    1
     3     2     4    1
     4     2     5    1
     5     2     6    1
     6     3     9    1
     7     3    10    1
     8     3    11    1
     9     4    12    1
    10     4    13    1
    11     4    14    1
    12     5    15    1
    13     5    16    1
    14     5    17    1
    15     6     7    2
    16     6    18    1
    17     7     8    1
    18     7    19    1
    19     8    20    1
