@<TRIPOS>MOLECULE
IMPHY002055
 71 75 0 0 0
SMALL
GASTEIGER

@<TRIPOS>ATOM
      1 O           2.6200   -2.1332    0.0000 O.3     1  UNL1       -0.4802
      2 O           2.6400   -0.4013    0.0000 O.2     1  UNL1       -0.2504
      3 O          12.2545    2.3305    0.0000 O.2     1  UNL1       -0.5030
      4 O          10.4351    3.3623    0.0000 O.2     1  UNL1       -0.2840
      5 C           6.9146   -0.8139    0.0000 C.3     1  UNL1       -0.0196
      6 C           6.0046   -1.3208    0.0000 C.3     1  UNL1       -0.0284
      7 C           7.7806   -1.3139    0.0000 C.3     1  UNL1       -0.0043
      8 C           5.9966   -2.3624    0.0000 C.3     1  UNL1       -0.0286
      9 C           7.7967   -2.3554    0.0000 C.3     1  UNL1       -0.0429
     10 C           6.8986   -2.8832    0.0000 C.3     1  UNL1       -0.0465
     11 C           6.9146    0.1861    0.0000 C.3     1  UNL1       -0.0455
     12 C           5.0778   -0.7567    0.0000 C.3     1  UNL1       -0.0336
     13 C           8.6466   -0.8139    0.0000 C.2     1  UNL1       -0.0529
     14 C           5.0611   -2.9121    0.0000 C.3     1  UNL1       -0.0464
     15 C           8.6466    0.1861    0.0000 C.3     1  UNL1        0.0154
     16 C           4.1299   -1.2846    0.0000 C.3     1  UNL1        0.0651
     17 C           7.7806    0.6861    0.0000 C.3     1  UNL1       -0.0393
     18 C           6.0486   -0.3139    0.0000 C.3     1  UNL1       -0.0585
     19 C           4.1215   -2.3696    0.0000 C.3     1  UNL1       -0.0370
     20 C           8.6466   -1.8139    0.0000 C.3     1  UNL1       -0.0553
     21 C           5.9889   -3.3623    0.0000 C.3     1  UNL1       -0.0593
     22 C           9.5406    0.7208    0.0000 C.2     1  UNL1       -0.0262
     23 C           9.5406   -1.3486    0.0000 C.2     1  UNL1       -0.0606
     24 C           8.6466    1.1861    0.0000 C.3     1  UNL1       -0.0517
     25 C           3.6399   -0.4129    0.0000 C.3     1  UNL1       -0.0494
     26 C           3.1299   -1.2730    0.0000 C.2     1  UNL1        0.3107
     27 C          10.4467    0.2069    0.0000 C.2     1  UNL1       -0.0144
     28 C          10.4467   -0.8347    0.0000 C.2     1  UNL1       -0.0539
     29 C           9.5155    1.8055    0.0000 C.2     1  UNL1       -0.0067
     30 C          11.3904    0.7422    0.0000 C.2     1  UNL1        0.0022
     31 C          10.4467    2.3624    0.0000 C.2     1  UNL1        0.2206
     32 C          11.3904    1.8272    0.0000 C.2     1  UNL1        0.1671
     33 C          12.2545    0.2388    0.0000 C.3     1  UNL1       -0.0356
     34 H           6.7358   -1.7542    0.0000 H       1  UNL1        0.0312
     35 H           8.0147   -2.9358    0.0000 H       1  UNL1        0.0274
     36 H           8.4058   -2.2399    0.0000 H       1  UNL1        0.0274
     37 H           6.5013   -3.3591    0.0000 H       1  UNL1        0.0271
     38 H           7.2996   -3.3561    0.0000 H       1  UNL1        0.0271
     39 H           6.7025    0.7687    0.0000 H       1  UNL1        0.0271
     40 H           6.3040    0.0784    0.0000 H       1  UNL1        0.0271
     41 H           5.4860   -0.2900    0.0000 H       1  UNL1        0.0279
     42 H           4.6878   -0.2746    0.0000 H       1  UNL1        0.0279
     43 H           4.6638   -3.3880    0.0000 H       1  UNL1        0.0271
     44 H           5.4621   -3.3850    0.0000 H       1  UNL1        0.0271
     45 H           8.1792    1.1610    0.0000 H       1  UNL1        0.0277
     46 H           7.3821    1.1610    0.0000 H       1  UNL1        0.0277
     47 H           6.3586    0.2230    0.0000 H       1  UNL1        0.0235
     48 H           5.5116   -0.0039    0.0000 H       1  UNL1        0.0235
     49 H           5.7386   -0.8508    0.0000 H       1  UNL1        0.0235
     50 H           3.5115   -2.2588    0.0000 H       1  UNL1        0.0276
     51 H           3.9080   -2.9516    0.0000 H       1  UNL1        0.0276
     52 H           8.3366   -2.3508    0.0000 H       1  UNL1        0.0238
     53 H           9.1836   -2.1239    0.0000 H       1  UNL1        0.0238
     54 H           8.9566   -1.2770    0.0000 H       1  UNL1        0.0238
     55 H           5.3689   -3.3575    0.0000 H       1  UNL1        0.0235
     56 H           5.9841   -3.9823    0.0000 H       1  UNL1        0.0235
     57 H           6.6088   -3.3671    0.0000 H       1  UNL1        0.0235
     58 H           9.5334   -1.9685    0.0000 H       1  UNL1        0.0618
     59 H           9.2666    1.1861    0.0000 H       1  UNL1        0.0241
     60 H           8.6466    1.8061    0.0000 H       1  UNL1        0.0241
     61 H           8.0266    1.1861    0.0000 H       1  UNL1        0.0241
     62 H           4.1804   -0.1091    0.0000 H       1  UNL1        0.0240
     63 H           3.3362    0.1276    0.0000 H       1  UNL1        0.0240
     64 H           3.0994   -0.7166    0.0000 H       1  UNL1        0.0240
     65 H          10.9824   -1.1468    0.0000 H       1  UNL1        0.0624
     66 H           8.9727    2.1051    0.0000 H       1  UNL1        0.0660
     67 H           2.0000   -2.1261    0.0000 H       1  UNL1        0.2951
     68 H          11.9425   -0.2969    0.0000 H       1  UNL1        0.0279
     69 H          12.7903   -0.0732    0.0000 H       1  UNL1        0.0279
     70 H          12.5666    0.7746    0.0000 H       1  UNL1        0.0279
     71 H          12.2521    2.9505    0.0000 H       1  UNL1        0.2923
@<TRIPOS>BOND
     1     1    26    1
     2     1    67    1
     3     2    26    2
     4     3    32    1
     5     3    71    1
     6     4    31    2
     7     5     6    1
     8     5     7    1
     9     5    11    1
    10     5    18    1
    11     6     8    1
    12     6    12    1
    13     6    34    1
    14     7     9    1
    15     7    13    1
    16     7    20    1
    17     8    10    1
    18     8    14    1
    19     8    21    1
    20     9    10    1
    21     9    35    1
    22     9    36    1
    23    10    37    1
    24    10    38    1
    25    11    17    1
    26    11    39    1
    27    11    40    1
    28    12    16    1
    29    12    41    1
    30    12    42    1
    31    13    15    1
    32    13    23    2
    33    14    19    1
    34    14    43    1
    35    14    44    1
    36    15    17    1
    37    15    22    1
    38    15    24    1
    39    16    19    1
    40    16    25    1
    41    16    26    1
    42    17    45    1
    43    17    46    1
    44    18    47    1
    45    18    48    1
    46    18    49    1
    47    19    50    1
    48    19    51    1
    49    20    52    1
    50    20    53    1
    51    20    54    1
    52    21    55    1
    53    21    56    1
    54    21    57    1
    55    22    27    1
    56    22    29    2
    57    23    28    1
    58    23    58    1
    59    24    59    1
    60    24    60    1
    61    24    61    1
    62    25    62    1
    63    25    63    1
    64    25    64    1
    65    27    28    2
    66    27    30    1
    67    28    65    1
    68    29    31    1
    69    29    66    1
    70    30    32    2
    71    30    33    1
    72    31    32    1
    73    33    68    1
    74    33    69    1
    75    33    70    1
