@<TRIPOS>MOLECULE
IMPHY002308
 42 45 0 0 0
SMALL
GASTEIGER

@<TRIPOS>ATOM
      1 O           2.5405   -1.2452    0.0000 O.3     1  UNL1       -0.3908
      2 O           2.5247    1.7968    0.0000 O.3     1  UNL1       -0.4914
      3 O           4.2986    2.8209    0.0000 O.3     1  UNL1       -0.4914
      4 N           6.0427   -1.2483    0.0000 N.3     1  UNL1       -0.2906
      5 C           5.1767   -1.7483    0.0000 C.3     1  UNL1        0.0412
      6 C           4.3107   -1.2483    0.0000 C.3     1  UNL1        0.0302
      7 C           5.1928   -2.7898    0.0000 C.2     1  UNL1       -0.0545
      8 C           3.4007   -1.7552    0.0000 C.3     1  UNL1        0.0672
      9 C           6.6606   -2.0267    0.0000 C.3     1  UNL1        0.0035
     10 C           6.1808   -2.8970    0.0000 C.3     1  UNL1       -0.0174
     11 C           4.3107   -0.2483    0.0000 C.ar    1  UNL1       -0.0319
     12 C           6.0427   -0.2483    0.0000 C.3     1  UNL1        0.0250
     13 C           3.3926   -2.7968    0.0000 C.3     1  UNL1       -0.0077
     14 C           5.1767    0.2517    0.0000 C.ar    1  UNL1       -0.0261
     15 C           4.2947   -3.3176    0.0000 C.2     1  UNL1       -0.0808
     16 C           3.4007    0.2585    0.0000 C.ar    1  UNL1       -0.0124
     17 C           5.1928    1.2932    0.0000 C.ar    1  UNL1       -0.0116
     18 C           3.3926    1.3001    0.0000 C.ar    1  UNL1        0.1618
     19 C           4.2947    1.8209    0.0000 C.ar    1  UNL1        0.1618
     20 C           2.5208    2.7968    0.0000 C.3     1  UNL1        0.0790
     21 C           5.1665    3.3176    0.0000 C.3     1  UNL1        0.0790
     22 H           4.4406   -2.1733    0.0000 H       1  UNL1        0.0516
     23 H           5.0468   -0.8233    0.0000 H       1  UNL1        0.0393
     24 H           2.8608   -2.0600    0.0000 H       1  UNL1        0.0603
     25 H           7.1595   -2.3949    0.0000 H       1  UNL1        0.0430
     26 H           7.0913   -1.5807    0.0000 H       1  UNL1        0.0430
     27 H           6.0334   -3.4992    0.0000 H       1  UNL1        0.0323
     28 H           6.7584   -3.1223    0.0000 H       1  UNL1        0.0323
     29 H           6.6533   -0.3560    0.0000 H       1  UNL1        0.0476
     30 H           6.2548    0.3343    0.0000 H       1  UNL1        0.0476
     31 H           2.7826   -2.6860    0.0000 H       1  UNL1        0.0333
     32 H           3.1791   -3.3788    0.0000 H       1  UNL1        0.0333
     33 H           4.2971   -3.9376    0.0000 H       1  UNL1        0.0573
     34 H           2.8674   -0.0577    0.0000 H       1  UNL1        0.0658
     35 H           5.7332    1.5970    0.0000 H       1  UNL1        0.0658
     36 H           2.0000   -1.5490    0.0000 H       1  UNL1        0.2098
     37 H           3.1408    2.7992    0.0000 H       1  UNL1        0.0660
     38 H           2.5184    3.4168    0.0000 H       1  UNL1        0.0660
     39 H           1.9008    2.7944    0.0000 H       1  UNL1        0.0660
     40 H           5.4744    2.7795    0.0000 H       1  UNL1        0.0660
     41 H           5.7046    3.6255    0.0000 H       1  UNL1        0.0660
     42 H           4.8586    3.8557    0.0000 H       1  UNL1        0.0660
@<TRIPOS>BOND
     1     8     1    1
     2     1    36    1
     3     2    18    1
     4     2    20    1
     5     3    19    1
     6     3    21    1
     7     4     5    1
     8     4     9    1
     9     4    12    1
    10     5     6    1
    11     5     7    1
    12     5    22    1
    13     6     8    1
    14     6    11    1
    15     6    23    1
    16     7    10    1
    17     7    15    2
    18     8    13    1
    19     8    24    1
    20     9    10    1
    21     9    25    1
    22     9    26    1
    23    10    27    1
    24    10    28    1
    25    11    14   ar
    26    11    16   ar
    27    12    14    1
    28    12    29    1
    29    12    30    1
    30    13    15    1
    31    13    31    1
    32    13    32    1
    33    14    17   ar
    34    15    33    1
    35    16    18   ar
    36    16    34    1
    37    17    19   ar
    38    17    35    1
    39    18    19   ar
    40    20    37    1
    41    20    38    1
    42    20    39    1
    43    21    40    1
    44    21    41    1
    45    21    42    1
