@<TRIPOS>MOLECULE
IMPHY007527
 43 46 0 0 0
SMALL
GASTEIGER

@<TRIPOS>ATOM
      1 O           2.9182   -0.1320    0.0000 O.3     1  UNL1       -0.4907
      2 O           4.3455   -3.3713    0.0000 O.3     1  UNL1       -0.4907
      3 O           2.6884   -2.1673    0.0000 O.3     1  UNL1       -0.4885
      4 O           7.1518    2.9828    0.0000 O.3     1  UNL1       -0.4913
      5 O           5.4874    3.7815    0.0000 O.2     1  UNL1       -0.2840
      6 N           7.1527   -0.8511    0.0000 N.ar    1  UNL1       -0.2543
      7 C           5.4874   -0.9079    0.0000 C.ar    1  UNL1        0.0231
      8 C           4.6784   -0.3201    0.0000 C.ar    1  UNL1        0.0380
      9 C           4.9874    0.6310    0.0000 C.ar    1  UNL1       -0.0042
     10 C           6.2964   -0.3201    0.0000 C.ar    1  UNL1        0.0802
     11 C           5.9874    0.6310    0.0000 C.ar    1  UNL1        0.0124
     12 C           5.3945   -1.9454    0.0000 C.ar    1  UNL1        0.0317
     13 C           3.7204   -0.7291    0.0000 C.ar    1  UNL1        0.1735
     14 C           4.4462   -2.3764    0.0000 C.ar    1  UNL1        0.1730
     15 C           3.6035   -1.7641    0.0000 C.ar    1  UNL1        0.2048
     16 C           6.2981   -2.3910    0.0000 C.ar    1  UNL1       -0.0322
     17 C           4.3810    1.4019    0.0000 C.ar    1  UNL1       -0.0495
     18 C           6.5937    1.4019    0.0000 C.ar    1  UNL1       -0.0064
     19 C           7.1535   -1.8586    0.0000 C.ar    1  UNL1        0.0290
     20 C           6.3716    2.3572    0.0000 C.ar    1  UNL1        0.1672
     21 C           4.6031    2.3572    0.0000 C.ar    1  UNL1       -0.0107
     22 C           5.4874    2.7815    0.0000 C.ar    1  UNL1        0.2203
     23 C           2.0000   -0.5281    0.0000 C.3     1  UNL1        0.0790
     24 C           3.4335   -3.7815    0.0000 C.3     1  UNL1        0.0790
     25 C           2.5800   -3.1614    0.0000 C.3     1  UNL1        0.0791
     26 C           8.0836    2.6199    0.0000 C.3     1  UNL1        0.0790
     27 H           6.3286   -3.0103    0.0000 H       1  UNL1        0.0640
     28 H           3.7758    1.2672    0.0000 H       1  UNL1        0.0625
     29 H           7.1989    1.2672    0.0000 H       1  UNL1        0.0662
     30 H           7.6956   -2.1595    0.0000 H       1  UNL1        0.0830
     31 H           4.1194    2.7450    0.0000 H       1  UNL1        0.0657
     32 H           1.7544    0.0412    0.0000 H       1  UNL1        0.0660
     33 H           1.4307   -0.7737    0.0000 H       1  UNL1        0.0660
     34 H           2.2456   -1.0974    0.0000 H       1  UNL1        0.0660
     35 H           3.1792   -3.2161    0.0000 H       1  UNL1        0.0660
     36 H           2.8681   -4.0359    0.0000 H       1  UNL1        0.0660
     37 H           3.6879   -4.3470    0.0000 H       1  UNL1        0.0660
     38 H           1.9637   -3.0942    0.0000 H       1  UNL1        0.0660
     39 H           2.5128   -3.7778    0.0000 H       1  UNL1        0.0660
     40 H           3.1964   -3.2286    0.0000 H       1  UNL1        0.0660
     41 H           7.8586    2.0422    0.0000 H       1  UNL1        0.0660
     42 H           8.6614    2.3950    0.0000 H       1  UNL1        0.0660
     43 H           8.3086    3.1977    0.0000 H       1  UNL1        0.0660
@<TRIPOS>BOND
     1     1    13    1
     2     1    23    1
     3     2    14    1
     4     2    24    1
     5     3    15    1
     6     3    25    1
     7     4    20    1
     8     4    26    1
     9     5    22    2
    10     6    10   ar
    11     6    19   ar
    12     7     8   ar
    13     7    10   ar
    14     7    12   ar
    15     8     9    1
    16     8    13   ar
    17     9    11   ar
    18     9    17   ar
    19    10    11    1
    20    11    18   ar
    21    12    14   ar
    22    12    16   ar
    23    13    15   ar
    24    14    15   ar
    25    16    19   ar
    26    16    27    1
    27    17    21   ar
    28    17    28    1
    29    18    20   ar
    30    18    29    1
    31    19    30    1
    32    20    22   ar
    33    21    22   ar
    34    21    31    1
    35    23    32    1
    36    23    33    1
    37    23    34    1
    38    24    35    1
    39    24    36    1
    40    24    37    1
    41    25    38    1
    42    25    39    1
    43    25    40    1
    44    26    41    1
    45    26    42    1
    46    26    43    1
