@<TRIPOS>MOLECULE
IMPHY007792
 57 59 0 0 0
SMALL
GASTEIGER

@<TRIPOS>ATOM
      1 O           6.8671   -1.0950    0.0000 O.3     1  UNL1       -0.3093
      2 O           6.0010    0.4050    0.0000 O.2     1  UNL1       -0.4699
      3 O           5.1350   -1.0950    0.0000 O.3     1  UNL1       -0.3404
      4 O           8.9900    2.6602    0.0000 O.3     1  UNL1       -0.3871
      5 O           6.8671   -3.0950    0.0000 O.3     1  UNL1       -0.3841
      6 O           5.1350   -4.0950    0.0000 O.3     1  UNL1       -0.3864
      7 O           3.4030   -3.0950    0.0000 O.3     1  UNL1       -0.3865
      8 O           9.9685   -1.0565    0.0000 O.3     1  UNL1       -0.4604
      9 O           6.0010    3.4050    0.0000 O.3     1  UNL1       -0.4646
     10 O           2.5369   -1.5950    0.0000 O.3     1  UNL1       -0.3924
     11 O           7.7331    3.4050    0.0000 O.2     1  UNL1       -0.2452
     12 O           9.6113   -2.7513    0.0000 O.2     1  UNL1       -0.2512
     13 C           7.7331    0.4050    0.0000 C.3     1  UNL1        0.0557
     14 C           7.7331    1.4050    0.0000 C.3     1  UNL1        0.0357
     15 C           6.8671   -0.0950    0.0000 C.3     1  UNL1        0.2107
     16 C           8.6793    1.7097    0.0000 C.3     1  UNL1        0.0816
     17 C           8.6793    0.1003    0.0000 C.2     1  UNL1       -0.0245
     18 C           9.2629    0.9050    0.0000 C.2     1  UNL1       -0.0524
     19 C           6.8671    1.9050    0.0000 C.2     1  UNL1        0.0773
     20 C           6.0010   -1.5950    0.0000 C.3     1  UNL1        0.1918
     21 C           6.0010   -2.5950    0.0000 C.3     1  UNL1        0.1342
     22 C           5.1350   -3.0950    0.0000 C.3     1  UNL1        0.1141
     23 C           4.2690   -2.5950    0.0000 C.3     1  UNL1        0.1119
     24 C           4.2690   -1.5950    0.0000 C.3     1  UNL1        0.1130
     25 C           8.9900   -0.8503    0.0000 C.3     1  UNL1        0.1141
     26 C           6.0010    1.4050    0.0000 C.2     1  UNL1        0.0982
     27 C           6.8671    2.9050    0.0000 C.2     1  UNL1        0.3382
     28 C           3.4030   -1.0950    0.0000 C.3     1  UNL1        0.0730
     29 C          10.2791   -2.0070    0.0000 C.2     1  UNL1        0.3042
     30 C           6.0010    4.4050    0.0000 C.3     1  UNL1        0.0820
     31 C          11.2576   -2.2132    0.0000 C.3     1  UNL1        0.0332
     32 H           7.8230   -0.4402    0.0000 H       1  UNL1        0.0414
     33 H           7.8230    2.2502    0.0000 H       1  UNL1        0.0388
     34 H           7.4040   -0.4050    0.0000 H       1  UNL1        0.1062
     35 H           8.2418    2.1491    0.0000 H       1  UNL1        0.0644
     36 H           9.8829    0.9050    0.0000 H       1  UNL1        0.0598
     37 H           6.0010   -0.9750    0.0000 H       1  UNL1        0.0939
     38 H           6.0010   -3.2150    0.0000 H       1  UNL1        0.0671
     39 H           4.5981   -3.4050    0.0000 H       1  UNL1        0.0648
     40 H           3.7320   -2.2850    0.0000 H       1  UNL1        0.0647
     41 H           4.2690   -0.9750    0.0000 H       1  UNL1        0.0647
     42 H           8.3762   -0.9376    0.0000 H       1  UNL1        0.0745
     43 H           8.9694   -1.4699    0.0000 H       1  UNL1        0.0745
     44 H           5.4641    1.7150    0.0000 H       1  UNL1        0.1029
     45 H           9.5966    2.7881    0.0000 H       1  UNL1        0.2102
     46 H           3.8015   -0.6201    0.0000 H       1  UNL1        0.0584
     47 H           3.0044   -0.6201    0.0000 H       1  UNL1        0.0584
     48 H           6.8671   -3.7150    0.0000 H       1  UNL1        0.2101
     49 H           4.5981   -4.4050    0.0000 H       1  UNL1        0.2100
     50 H           3.4030   -3.7150    0.0000 H       1  UNL1        0.2100
     51 H           2.0000   -1.2850    0.0000 H       1  UNL1        0.2095
     52 H           6.6210    4.4050    0.0000 H       1  UNL1        0.0661
     53 H           6.0010    5.0250    0.0000 H       1  UNL1        0.0661
     54 H           5.3810    4.4050    0.0000 H       1  UNL1        0.0661
     55 H          11.1298   -2.8199    0.0000 H       1  UNL1        0.0342
     56 H          11.8643   -2.3411    0.0000 H       1  UNL1        0.0342
     57 H          11.3855   -1.6065    0.0000 H       1  UNL1        0.0342
@<TRIPOS>BOND
     1    15     1    1
     2    20     1    1
     3     2    15    1
     4     2    26    1
     5     3    20    1
     6     3    24    1
     7    16     4    1
     8     4    45    1
     9    21     5    1
    10     5    48    1
    11    22     6    1
    12     6    49    1
    13    23     7    1
    14     7    50    1
    15     8    25    1
    16     8    29    1
    17     9    27    1
    18     9    30    1
    19    10    28    1
    20    10    51    1
    21    11    27    2
    22    12    29    2
    23    13    14    1
    24    13    15    1
    25    13    17    1
    26    13    32    1
    27    14    16    1
    28    14    19    1
    29    14    33    1
    30    15    34    1
    31    16    18    1
    32    16    35    1
    33    17    18    2
    34    17    25    1
    35    18    36    1
    36    19    26    2
    37    19    27    1
    38    20    21    1
    39    20    37    1
    40    21    22    1
    41    21    38    1
    42    22    23    1
    43    22    39    1
    44    23    24    1
    45    23    40    1
    46    24    28    1
    47    24    41    1
    48    25    42    1
    49    25    43    1
    50    26    44    1
    51    28    46    1
    52    28    47    1
    53    29    31    1
    54    30    52    1
    55    30    53    1
    56    30    54    1
    57    31    55    1
    58    31    56    1
    59    31    57    1
