@<TRIPOS>MOLECULE
IMPHY003337
 30 32 0 0 0
SMALL
GASTEIGER

@<TRIPOS>ATOM
      1 O           4.5274    1.4961    0.0000 O.2     1  UNL1       -0.4510
      2 O           6.6498    2.0951    0.0000 O.3     1  UNL1       -0.4884
      3 O           7.3991   -1.3645    0.0000 O.3     1  UNL1       -0.4913
      4 O           8.0321    0.5836    0.0000 O.3     1  UNL1       -0.5008
      5 C           5.0274   -0.0427    0.0000 C.ar    1  UNL1        0.0353
      6 C           4.0274   -0.0427    0.0000 C.ar    1  UNL1        0.0282
      7 C           5.3364    0.9083    0.0000 C.ar    1  UNL1        0.1815
      8 C           3.7183    0.9083    0.0000 C.ar    1  UNL1        0.1364
      9 C           6.3518    1.1406    0.0000 C.ar    1  UNL1        0.2083
     10 C           5.7123   -0.8275    0.0000 C.ar    1  UNL1       -0.0047
     11 C           6.7328   -0.6188    0.0000 C.ar    1  UNL1        0.1658
     12 C           7.0547    0.3719    0.0000 C.ar    1  UNL1        0.2048
     13 C           3.3424   -0.8275    0.0000 C.ar    1  UNL1       -0.0504
     14 C           2.7029    1.1406    0.0000 C.ar    1  UNL1       -0.0187
     15 C           2.3219   -0.6188    0.0000 C.ar    1  UNL1       -0.0610
     16 C           2.0000    0.3719    0.0000 C.ar    1  UNL1       -0.0582
     17 C           7.6255    2.3143    0.0000 C.3     1  UNL1        0.0791
     18 C           7.0864   -2.3143    0.0000 C.3     1  UNL1        0.0790
     19 H           5.5139   -1.4149    0.0000 H       1  UNL1        0.0663
     20 H           3.5408   -1.4149    0.0000 H       1  UNL1        0.0625
     21 H           2.5182    1.7324    0.0000 H       1  UNL1        0.0654
     22 H           1.9088   -1.0811    0.0000 H       1  UNL1        0.0618
     23 H           1.3940    0.5031    0.0000 H       1  UNL1        0.0619
     24 H           8.4487    0.1244    0.0000 H       1  UNL1        0.2924
     25 H           7.7614    1.7094    0.0000 H       1  UNL1        0.0660
     26 H           8.2304    2.4502    0.0000 H       1  UNL1        0.0660
     27 H           7.4896    2.9193    0.0000 H       1  UNL1        0.0660
     28 H           6.4975   -2.1205    0.0000 H       1  UNL1        0.0660
     29 H           6.8926   -2.9033    0.0000 H       1  UNL1        0.0660
     30 H           7.6753   -2.5082    0.0000 H       1  UNL1        0.0660
@<TRIPOS>BOND
     1     1     7   ar
     2     1     8   ar
     3     2     9    1
     4     2    17    1
     5     3    11    1
     6     3    18    1
     7     4    12    1
     8     4    24    1
     9     5     6   ar
    10     5     7   ar
    11     5    10   ar
    12     6     8   ar
    13     6    13   ar
    14     7     9   ar
    15     8    14   ar
    16     9    12   ar
    17    10    11   ar
    18    10    19    1
    19    11    12   ar
    20    13    15   ar
    21    13    20    1
    22    14    16   ar
    23    14    21    1
    24    15    16   ar
    25    15    22    1
    26    16    23    1
    27    17    25    1
    28    17    26    1
    29    17    27    1
    30    18    28    1
    31    18    29    1
    32    18    30    1
