@<TRIPOS>MOLECULE
IMPHY008479
 35 37 0 0 0
SMALL
GASTEIGER

@<TRIPOS>ATOM
      1 O           5.5301    0.0173    0.0000 O.3     1  UNL1       -0.4831
      2 O           7.3424   -2.7874    0.0000 O.2     1  UNL1       -0.4627
      3 O           3.7702   -3.0173    0.0000 O.2     1  UNL1       -0.4219
      4 O           5.5301    2.0173    0.0000 O.2     1  UNL1       -0.2935
      5 O           2.0000   -3.0068    0.0000 O.2     1  UNL1       -0.2452
      6 C           5.5301   -0.9827    0.0000 C.ar    1  UNL1        0.1425
      7 C           6.3961   -1.4827    0.0000 C.ar    1  UNL1        0.0626
      8 C           7.2622    2.0173    0.0000 C.3     1  UNL1        0.0153
      9 C           4.6641   -1.4827    0.0000 C.ar    1  UNL1        0.0600
     10 C           6.3961   -2.4827    0.0000 C.ar    1  UNL1        0.1418
     11 C           4.6641   -2.4827    0.0000 C.ar    1  UNL1        0.1461
     12 C           6.3961    0.5173    0.0000 C.3     1  UNL1        0.1476
     13 C           6.3961    1.5173    0.0000 C.2     1  UNL1        0.1729
     14 C           5.5301   -2.9827    0.0000 C.ar    1  UNL1        0.0245
     15 C           7.3424   -1.1779    0.0000 C.ar    1  UNL1       -0.0126
     16 C           7.2622    3.0173    0.0000 C.3     1  UNL1       -0.0558
     17 C           8.1282    1.5173    0.0000 C.3     1  UNL1       -0.0558
     18 C           3.7702   -0.9480    0.0000 C.ar    1  UNL1       -0.0408
     19 C           7.9260   -1.9827    0.0000 C.ar    1  UNL1        0.0933
     20 C           2.8641   -1.4619    0.0000 C.ar    1  UNL1        0.0237
     21 C           2.8641   -2.5035    0.0000 C.ar    1  UNL1        0.3372
     22 H           6.7252    2.3273    0.0000 H       1  UNL1        0.0373
     23 H           6.6082   -0.0653    0.0000 H       1  UNL1        0.0777
     24 H           7.0067    0.6250    0.0000 H       1  UNL1        0.0777
     25 H           5.5301   -3.6027    0.0000 H       1  UNL1        0.0692
     26 H           7.5350   -0.5886    0.0000 H       1  UNL1        0.0656
     27 H           7.8182    0.9804    0.0000 H       1  UNL1        0.0236
     28 H           8.6651    1.2073    0.0000 H       1  UNL1        0.0236
     29 H           7.8822    3.0173    0.0000 H       1  UNL1        0.0236
     30 H           7.2622    3.6373    0.0000 H       1  UNL1        0.0236
     31 H           6.6422    3.0173    0.0000 H       1  UNL1        0.0236
     32 H           8.4382    2.0543    0.0000 H       1  UNL1        0.0236
     33 H           3.7773   -0.3280    0.0000 H       1  UNL1        0.0628
     34 H           8.5460   -1.9827    0.0000 H       1  UNL1        0.1030
     35 H           2.3284   -1.1498    0.0000 H       1  UNL1        0.0689
@<TRIPOS>BOND
     1     1     6    1
     2     1    12    1
     3     2    10   ar
     4     2    19   ar
     5     3    11   ar
     6     3    21   ar
     7     4    13    2
     8     5    21    2
     9     6     7   ar
    10     6     9   ar
    11     7    10   ar
    12     7    15   ar
    13     8    13    1
    14     8    16    1
    15     8    17    1
    16     8    22    1
    17     9    11   ar
    18     9    18   ar
    19    10    14   ar
    20    11    14   ar
    21    12    13    1
    22    12    23    1
    23    12    24    1
    24    14    25    1
    25    15    19   ar
    26    15    26    1
    27    16    29    1
    28    16    30    1
    29    16    31    1
    30    17    27    1
    31    17    28    1
    32    17    32    1
    33    18    20   ar
    34    18    33    1
    35    19    34    1
    36    20    21   ar
    37    20    35    1
