@<TRIPOS>MOLECULE
IMPHY008340
 58 61 0 0 0
SMALL
GASTEIGER

@<TRIPOS>ATOM
      1 O           8.1223   -2.5159    0.0000 O.3     1  UNL1       -0.4608
      2 O           5.5103    1.0125    0.0000 O.3     1  UNL1       -0.3888
      3 O           8.6855    1.3936    0.0000 O.3     1  UNL1       -0.3859
      4 O           7.2762    2.0503    0.0000 O.3     1  UNL1       -0.3744
      5 O           4.6497    0.5156    0.0000 O.2     1  UNL1       -0.2882
      6 O           9.8438   -2.5487    0.0000 O.2     1  UNL1       -0.2508
      7 O           2.8680   -0.4948    0.0000 O.2     1  UNL1       -0.4919
      8 C           7.2641   -1.0190    0.0000 C.3     1  UNL1        0.0171
      9 C           6.3981   -0.5190    0.0000 C.3     1  UNL1        0.0094
     10 C           5.5320   -1.0190    0.0000 C.3     1  UNL1        0.0429
     11 C           8.1741   -0.5121    0.0000 C.3     1  UNL1        0.0093
     12 C           7.2641   -2.0190    0.0000 C.3     1  UNL1        0.1094
     13 C           5.5320   -2.0190    0.0000 C.3     1  UNL1       -0.0212
     14 C           6.3820    0.5225    0.0000 C.3     1  UNL1        0.0883
     15 C           8.1821    0.5295    0.0000 C.3     1  UNL1        0.0956
     16 C           6.3981   -2.5190    0.0000 C.3     1  UNL1       -0.0111
     17 C           7.2800    1.0503    0.0000 C.3     1  UNL1        0.1130
     18 C           7.2641   -0.0190    0.0000 C.3     1  UNL1       -0.0555
     19 C           9.0134   -1.0404    0.0000 C.3     1  UNL1        0.0511
     20 C           5.5320   -0.0190    0.0000 C.3     1  UNL1       -0.0518
     21 C           4.6381   -2.5536    0.0000 C.3     1  UNL1       -0.0271
     22 C           4.6381   -0.4843    0.0000 C.2     1  UNL1        0.2034
     23 C           9.1821    0.5256    0.0000 C.3     1  UNL1       -0.0332
     24 C           8.9878   -2.0317    0.0000 C.2     1  UNL1        0.3077
     25 C           3.7320   -0.9981    0.0000 C.2     1  UNL1        0.1590
     26 C           3.7320   -2.0398    0.0000 C.2     1  UNL1       -0.0385
     27 C           8.1403    2.5536    0.0000 C.3     1  UNL1        0.0370
     28 C           2.0000   -0.9915    0.0000 C.3     1  UNL1        0.0789
     29 H           5.6587   -0.0997    0.0000 H       1  UNL1        0.0343
     30 H           8.9198   -0.1041    0.0000 H       1  UNL1        0.0341
     31 H           7.2636   -2.8690    0.0000 H       1  UNL1        0.0739
     32 H           5.5386   -2.8689    0.0000 H       1  UNL1        0.0314
     33 H           5.8493    0.2053    0.0000 H       1  UNL1        0.0623
     34 H           5.9995   -2.9939    0.0000 H       1  UNL1        0.0304
     35 H           6.7966   -2.9939    0.0000 H       1  UNL1        0.0304
     36 H           6.7413    1.3572    0.0000 H       1  UNL1        0.0651
     37 H           7.8841   -0.0190    0.0000 H       1  UNL1        0.0236
     38 H           7.2641    0.6010    0.0000 H       1  UNL1        0.0236
     39 H           6.6441   -0.0190    0.0000 H       1  UNL1        0.0236
     40 H           9.6205   -1.1662    0.0000 H       1  UNL1        0.0381
     41 H           9.2452   -0.4653    0.0000 H       1  UNL1        0.0381
     42 H           6.1520   -0.0190    0.0000 H       1  UNL1        0.0239
     43 H           5.5320    0.6010    0.0000 H       1  UNL1        0.0239
     44 H           4.9120   -0.0190    0.0000 H       1  UNL1        0.0239
     45 H           4.2445   -3.0326    0.0000 H       1  UNL1        0.0312
     46 H           5.0427   -3.0234    0.0000 H       1  UNL1        0.0312
     47 H           9.1797   -0.0944    0.0000 H       1  UNL1        0.0258
     48 H           9.8021    0.5232    0.0000 H       1  UNL1        0.0258
     49 H           9.1845    1.1456    0.0000 H       1  UNL1        0.0258
     50 H           5.5031    1.6324    0.0000 H       1  UNL1        0.2099
     51 H           9.3055    1.3912    0.0000 H       1  UNL1        0.2103
     52 H           3.1963   -2.3519    0.0000 H       1  UNL1        0.0609
     53 H           8.4523    2.0179    0.0000 H       1  UNL1        0.0524
     54 H           8.6760    2.8657    0.0000 H       1  UNL1        0.0524
     55 H           7.8282    3.0894    0.0000 H       1  UNL1        0.0524
     56 H           1.6921   -0.4533    0.0000 H       1  UNL1        0.0660
     57 H           1.4619   -1.2994    0.0000 H       1  UNL1        0.0660
     58 H           2.3079   -1.5296    0.0000 H       1  UNL1        0.0660
@<TRIPOS>BOND
     1     1    12    1
     2     1    24    1
     3    14     2    1
     4     2    50    1
     5    15     3    1
     6     3    51    1
     7    17     4    1
     8     4    27    1
     9     5    22    2
    10     6    24    2
    11     7    25    1
    12     7    28    1
    13     8     9    1
    14     8    11    1
    15     8    12    1
    16     8    18    1
    17     9    10    1
    18     9    14    1
    19     9    29    1
    20    10    13    1
    21    10    20    1
    22    10    22    1
    23    11    15    1
    24    11    19    1
    25    11    30    1
    26    12    16    1
    27    12    31    1
    28    13    16    1
    29    13    21    1
    30    13    32    1
    31    14    17    1
    32    14    33    1
    33    15    17    1
    34    15    23    1
    35    16    34    1
    36    16    35    1
    37    17    36    1
    38    18    37    1
    39    18    38    1
    40    18    39    1
    41    19    24    1
    42    19    40    1
    43    19    41    1
    44    20    42    1
    45    20    43    1
    46    20    44    1
    47    21    26    1
    48    21    45    1
    49    21    46    1
    50    22    25    1
    51    23    47    1
    52    23    48    1
    53    23    49    1
    54    25    26    2
    55    26    52    1
    56    27    53    1
    57    27    54    1
    58    27    55    1
    59    28    56    1
    60    28    57    1
    61    28    58    1
