@<TRIPOS>MOLECULE
IMPHY008461
 45 47 0 0 0
SMALL
GASTEIGER

@<TRIPOS>ATOM
      1 O           6.3580   -2.2401    0.0000 O.2     1  UNL1       -0.4618
      2 O           2.8660   -0.2054    0.0000 O.3     1  UNL1       -0.4885
      3 O           8.9846    2.3221    0.0000 O.3     1  UNL1       -0.4913
      4 O          10.7282   -0.6712    0.0000 O.3     1  UNL1       -0.4913
      5 O           4.5981    0.7946    0.0000 O.3     1  UNL1       -0.5027
      6 O          10.7205    1.3288    0.0000 O.3     1  UNL1       -0.4885
      7 O           6.3465    0.8292    0.0000 O.2     1  UNL1       -0.2863
      8 O           2.8660   -2.2054    0.0000 O.3     1  UNL1       -0.5031
      9 C           7.2641   -0.6846    0.0000 C.ar    1  UNL1        0.0646
     10 C           5.4641   -0.7054    0.0000 C.ar    1  UNL1        0.1097
     11 C           8.1282   -0.1813    0.0000 C.ar    1  UNL1       -0.0041
     12 C           6.3580   -0.1707    0.0000 C.ar    1  UNL1        0.2038
     13 C           5.4641   -1.7054    0.0000 C.ar    1  UNL1        0.1456
     14 C           4.5981   -0.2054    0.0000 C.ar    1  UNL1        0.1768
     15 C           8.9962   -0.6779    0.0000 C.ar    1  UNL1       -0.0081
     16 C           8.1244    0.8187    0.0000 C.ar    1  UNL1       -0.0081
     17 C           7.2641   -1.7262    0.0000 C.ar    1  UNL1        0.1038
     18 C           4.5981   -2.2054    0.0000 C.ar    1  UNL1        0.0267
     19 C           3.7320   -0.7054    0.0000 C.ar    1  UNL1        0.2040
     20 C           8.9884    1.3221    0.0000 C.ar    1  UNL1        0.1658
     21 C           9.8602   -0.1746    0.0000 C.ar    1  UNL1        0.1658
     22 C           9.8564    0.8254    0.0000 C.ar    1  UNL1        0.2035
     23 C           3.7320   -1.7054    0.0000 C.ar    1  UNL1        0.1657
     24 C           9.8487    2.8254    0.0000 C.3     1  UNL1        0.0790
     25 C          10.7320   -1.6712    0.0000 C.3     1  UNL1        0.0790
     26 C           2.0000   -0.7054    0.0000 C.3     1  UNL1        0.0791
     27 C          11.5884    0.8321    0.0000 C.3     1  UNL1        0.0791
     28 H           8.9985   -1.2979    0.0000 H       1  UNL1        0.0661
     29 H           7.5862    1.1267    0.0000 H       1  UNL1        0.0661
     30 H           7.7998   -2.0383    0.0000 H       1  UNL1        0.1037
     31 H           4.5981   -2.8254    0.0000 H       1  UNL1        0.0692
     32 H           4.0611    1.1046    0.0000 H       1  UNL1        0.2923
     33 H           2.8660   -2.8254    0.0000 H       1  UNL1        0.2923
     34 H          10.1607    2.2897    0.0000 H       1  UNL1        0.0660
     35 H          10.3844    3.1375    0.0000 H       1  UNL1        0.0660
     36 H           9.5366    3.3611    0.0000 H       1  UNL1        0.0660
     37 H          10.1120   -1.6736    0.0000 H       1  UNL1        0.0660
     38 H          10.7344   -2.2912    0.0000 H       1  UNL1        0.0660
     39 H          11.3520   -1.6688    0.0000 H       1  UNL1        0.0660
     40 H           1.6900   -0.1685    0.0000 H       1  UNL1        0.0660
     41 H           1.4631   -1.0154    0.0000 H       1  UNL1        0.0660
     42 H           2.3100   -1.2423    0.0000 H       1  UNL1        0.0660
     43 H          11.2805    0.2940    0.0000 H       1  UNL1        0.0660
     44 H          12.1266    0.5242    0.0000 H       1  UNL1        0.0660
     45 H          11.8964    1.3702    0.0000 H       1  UNL1        0.0660
@<TRIPOS>BOND
     1     1    13   ar
     2     1    17   ar
     3     2    19    1
     4     2    26    1
     5     3    20    1
     6     3    24    1
     7     4    21    1
     8     4    25    1
     9     5    14    1
    10     5    32    1
    11     6    22    1
    12     6    27    1
    13     7    12    2
    14     8    23    1
    15     8    33    1
    16     9    11    1
    17     9    12   ar
    18     9    17   ar
    19    10    12   ar
    20    10    13   ar
    21    10    14   ar
    22    11    15   ar
    23    11    16   ar
    24    13    18   ar
    25    14    19   ar
    26    15    21   ar
    27    15    28    1
    28    16    20   ar
    29    16    29    1
    30    17    30    1
    31    18    23   ar
    32    18    31    1
    33    19    23   ar
    34    20    22   ar
    35    21    22   ar
    36    24    34    1
    37    24    35    1
    38    24    36    1
    39    25    37    1
    40    25    38    1
    41    25    39    1
    42    26    40    1
    43    26    41    1
    44    26    42    1
    45    27    43    1
    46    27    44    1
    47    27    45    1
