@<TRIPOS>MOLECULE
IMPHY006920
 54 56 0 0 0
SMALL
GASTEIGER

@<TRIPOS>ATOM
      1 O           5.4255    0.8290    0.0000 O.3     1  UNL1       -0.3837
      2 O           2.5381   -1.9612    0.0000 O.3     1  UNL1       -0.3912
      3 C           5.2022   -0.4370    0.0000 C.3     1  UNL1        0.0040
      4 C           5.2022   -1.4370    0.0000 C.3     1  UNL1       -0.0249
      5 C           6.0682    0.0630    0.0000 C.3     1  UNL1        0.0927
      6 C           4.3083   -1.9717    0.0000 C.3     1  UNL1       -0.0055
      7 C           4.3083    0.0976    0.0000 C.3     1  UNL1       -0.0421
      8 C           6.0682   -1.9370    0.0000 C.3     1  UNL1       -0.0453
      9 C           3.4022   -1.4578    0.0000 C.3     1  UNL1        0.0606
     10 C           6.9343   -0.4370    0.0000 C.2     1  UNL1       -0.0410
     11 C           3.4022   -0.4162    0.0000 C.3     1  UNL1       -0.0257
     12 C           6.0522    1.1045    0.0000 C.3     1  UNL1       -0.0185
     13 C           6.9343   -1.4370    0.0000 C.3     1  UNL1       -0.0287
     14 C           4.8602    0.5027    0.0000 C.3     1  UNL1       -0.0564
     15 C           6.9502    1.6322    0.0000 C.3     1  UNL1       -0.0378
     16 C           3.8183   -2.8434    0.0000 C.3     1  UNL1       -0.0572
     17 C           4.8183   -2.8319    0.0000 C.3     1  UNL1       -0.0572
     18 C           7.8523    1.1114    0.0000 C.3     1  UNL1        0.0041
     19 C           7.8443    0.0698    0.0000 C.2     1  UNL1       -0.0724
     20 C           8.8523    1.1076    0.0000 C.3     1  UNL1       -0.0526
     21 C           8.3556    1.9755    0.0000 C.2     1  UNL1       -0.0815
     22 C           7.8590    2.8434    0.0000 C.2     1  UNL1       -0.1018
     23 H           5.2088   -2.2870    0.0000 H       1  UNL1        0.0313
     24 H           4.7129    0.5674    0.0000 H       1  UNL1        0.0272
     25 H           3.9147    0.5766    0.0000 H       1  UNL1        0.0272
     26 H           5.6697   -2.4120    0.0000 H       1  UNL1        0.0271
     27 H           6.4668   -2.4120    0.0000 H       1  UNL1        0.0271
     28 H           2.8647   -1.1489    0.0000 H       1  UNL1        0.0599
     29 H           3.1932    0.1675    0.0000 H       1  UNL1        0.0290
     30 H           2.7914   -0.5223    0.0000 H       1  UNL1        0.0290
     31 H           5.8342    1.6849    0.0000 H       1  UNL1        0.0297
     32 H           5.4431    0.9890    0.0000 H       1  UNL1        0.0297
     33 H           7.1463   -2.0196    0.0000 H       1  UNL1        0.0311
     34 H           7.5449   -1.3294    0.0000 H       1  UNL1        0.0311
     35 H           5.4428    0.7147    0.0000 H       1  UNL1        0.0236
     36 H           4.6482    1.0853    0.0000 H       1  UNL1        0.0236
     37 H           4.2776    0.2906    0.0000 H       1  UNL1        0.0236
     38 H           7.3475    2.1082    0.0000 H       1  UNL1        0.0277
     39 H           6.5493    2.1051    0.0000 H       1  UNL1        0.0277
     40 H           3.2778   -2.5397    0.0000 H       1  UNL1        0.0236
     41 H           3.5146   -3.3839    0.0000 H       1  UNL1        0.0236
     42 H           4.3588   -3.1472    0.0000 H       1  UNL1        0.0236
     43 H           4.2850   -3.1481    0.0000 H       1  UNL1        0.0236
     44 H           5.1344   -3.3652    0.0000 H       1  UNL1        0.0236
     45 H           5.3516   -2.5157    0.0000 H       1  UNL1        0.0236
     46 H           8.3776   -0.2464    0.0000 H       1  UNL1        0.0581
     47 H           5.3178    1.4396    0.0000 H       1  UNL1        0.2106
     48 H           2.0000   -1.6533    0.0000 H       1  UNL1        0.2098
     49 H           8.8499    0.4876    0.0000 H       1  UNL1        0.0241
     50 H           9.4723    1.1052    0.0000 H       1  UNL1        0.0241
     51 H           8.8547    1.7276    0.0000 H       1  UNL1        0.0241
     52 H           8.9756    1.9731    0.0000 H       1  UNL1        0.0575
     53 H           8.1710    3.3792    0.0000 H       1  UNL1        0.0532
     54 H           7.2390    2.8458    0.0000 H       1  UNL1        0.0532
@<TRIPOS>BOND
     1     5     1    1
     2     1    47    1
     3     9     2    1
     4     2    48    1
     5     3     4    1
     6     3     5    1
     7     3     7    1
     8     3    14    1
     9     4     6    1
    10     4     8    1
    11     4    23    1
    12     5    10    1
    13     5    12    1
    14     6     9    1
    15     6    16    1
    16     6    17    1
    17     7    11    1
    18     7    24    1
    19     7    25    1
    20     8    13    1
    21     8    26    1
    22     8    27    1
    23     9    11    1
    24     9    28    1
    25    10    13    1
    26    10    19    2
    27    11    29    1
    28    11    30    1
    29    12    15    1
    30    12    31    1
    31    12    32    1
    32    13    33    1
    33    13    34    1
    34    14    35    1
    35    14    36    1
    36    14    37    1
    37    15    18    1
    38    15    38    1
    39    15    39    1
    40    16    40    1
    41    16    41    1
    42    16    42    1
    43    17    43    1
    44    17    44    1
    45    17    45    1
    46    18    19    1
    47    18    20    1
    48    18    21    1
    49    19    46    1
    50    20    49    1
    51    20    50    1
    52    20    51    1
    53    21    22    2
    54    21    52    1
    55    22    53    1
    56    22    54    1
