@<TRIPOS>MOLECULE
IMPHY009046
 80 84 0 0 0
SMALL
GASTEIGER

@<TRIPOS>ATOM
      1 O          10.0571    0.4932    0.0000 O.3     1  UNL1       -0.4802
      2 O           9.2027   -1.0134    0.0000 O.2     1  UNL1       -0.2504
      3 C           5.6591   -1.0410    0.0000 C.3     1  UNL1       -0.0194
      4 C           4.7931   -0.5410    0.0000 C.3     1  UNL1       -0.0257
      5 C           3.8831   -1.0478    0.0000 C.3     1  UNL1       -0.0251
      6 C           6.5251   -0.5410    0.0000 C.3     1  UNL1       -0.0051
      7 C           3.8751   -2.0894    0.0000 C.3     1  UNL1       -0.0302
      8 C           5.6752   -2.0825    0.0000 C.3     1  UNL1       -0.0463
      9 C           6.5251    0.4590    0.0000 C.2     1  UNL1       -0.0629
     10 C           4.7771   -2.6102    0.0000 C.3     1  UNL1       -0.0487
     11 C           2.9396   -2.6391    0.0000 C.3     1  UNL1       -0.0315
     12 C           7.4191    0.9937    0.0000 C.3     1  UNL1       -0.0031
     13 C           4.7931    0.4590    0.0000 C.3     1  UNL1       -0.0306
     14 C           7.4191   -1.0756    0.0000 C.3     1  UNL1       -0.0424
     15 C           2.9562   -0.4837    0.0000 C.3     1  UNL1       -0.0471
     16 C           8.3252    0.4799    0.0000 C.3     1  UNL1        0.0741
     17 C           6.3019   -1.8070    0.0000 C.3     1  UNL1       -0.0585
     18 C           8.3252   -0.5618    0.0000 C.3     1  UNL1       -0.0359
     19 C           5.6591    0.9590    0.0000 C.2     1  UNL1       -0.0836
     20 C           3.8908   -0.0478    0.0000 C.3     1  UNL1       -0.0590
     21 C           2.0000   -2.0966    0.0000 C.3     1  UNL1       -0.0476
     22 C           6.8672   -1.4806    0.0000 C.3     1  UNL1       -0.0553
     23 C           2.0084   -1.0117    0.0000 C.3     1  UNL1       -0.0521
     24 C           7.3940    2.0784    0.0000 C.3     1  UNL1       -0.0403
     25 C           9.2689    1.0151    0.0000 C.3     1  UNL1       -0.0362
     26 C           8.3252    2.6353    0.0000 C.3     1  UNL1       -0.0343
     27 C           9.2689    2.1001    0.0000 C.3     1  UNL1       -0.0468
     28 C           2.4430   -3.5071    0.0000 C.3     1  UNL1       -0.0595
     29 C           3.4430   -3.5032    0.0000 C.3     1  UNL1       -0.0595
     30 C           9.1950   -0.0135    0.0000 C.2     1  UNL1        0.3115
     31 C           8.8151    3.5071    0.0000 C.3     1  UNL1       -0.0598
     32 C           7.8152    3.4955    0.0000 C.3     1  UNL1       -0.0598
     33 H           5.5292   -0.1160    0.0000 H       1  UNL1        0.0315
     34 H           3.8783   -2.9394    0.0000 H       1  UNL1        0.0311
     35 H           5.8932   -2.6629    0.0000 H       1  UNL1        0.0271
     36 H           6.2843   -1.9670    0.0000 H       1  UNL1        0.0271
     37 H           4.3798   -3.0862    0.0000 H       1  UNL1        0.0268
     38 H           5.1781   -3.0831    0.0000 H       1  UNL1        0.0268
     39 H           8.1486    1.4300    0.0000 H       1  UNL1        0.0357
     40 H           4.5810    1.0416    0.0000 H       1  UNL1        0.0310
     41 H           4.1825    0.3514    0.0000 H       1  UNL1        0.0310
     42 H           7.0145   -1.5454    0.0000 H       1  UNL1        0.0274
     43 H           7.8127   -1.5546    0.0000 H       1  UNL1        0.0274
     44 H           3.3645   -0.0171    0.0000 H       1  UNL1        0.0271
     45 H           2.5663   -0.0017    0.0000 H       1  UNL1        0.0271
     46 H           8.5342   -1.1455    0.0000 H       1  UNL1        0.0276
     47 H           8.9360   -0.4557    0.0000 H       1  UNL1        0.0276
     48 H           5.8270   -2.2055    0.0000 H       1  UNL1        0.0235
     49 H           6.7004   -2.2820    0.0000 H       1  UNL1        0.0235
     50 H           6.7768   -1.4085    0.0000 H       1  UNL1        0.0235
     51 H           5.6591    1.5790    0.0000 H       1  UNL1        0.0572
     52 H           4.5108   -0.0526    0.0000 H       1  UNL1        0.0235
     53 H           3.8956    0.5721    0.0000 H       1  UNL1        0.0235
     54 H           3.2708   -0.0431    0.0000 H       1  UNL1        0.0235
     55 H           1.3900   -1.9858    0.0000 H       1  UNL1        0.0271
     56 H           1.7864   -2.6787    0.0000 H       1  UNL1        0.0271
     57 H           6.2847   -1.6927    0.0000 H       1  UNL1        0.0238
     58 H           7.0794   -2.0632    0.0000 H       1  UNL1        0.0238
     59 H           7.4498   -1.2685    0.0000 H       1  UNL1        0.0238
     60 H           1.8038   -0.4264    0.0000 H       1  UNL1        0.0266
     61 H           1.3967   -1.1131    0.0000 H       1  UNL1        0.0266
     62 H           7.1715    2.6571    0.0000 H       1  UNL1        0.0276
     63 H           6.7858    1.9582    0.0000 H       1  UNL1        0.0276
     64 H           9.4780    0.4314    0.0000 H       1  UNL1        0.0276
     65 H           9.8798    1.1212    0.0000 H       1  UNL1        0.0276
     66 H           9.8798    1.9940    0.0000 H       1  UNL1        0.0271
     67 H           9.4780    2.6838    0.0000 H       1  UNL1        0.0271
     68 H           2.9072   -3.8153    0.0000 H       1  UNL1        0.0235
     69 H           3.7550   -4.0390    0.0000 H       1  UNL1        0.0235
     70 H           3.9787   -3.1912    0.0000 H       1  UNL1        0.0235
     71 H           1.9048   -3.1992    0.0000 H       1  UNL1        0.0235
     72 H           2.1350   -4.0452    0.0000 H       1  UNL1        0.0235
     73 H           2.9811   -3.8150    0.0000 H       1  UNL1        0.0235
     74 H           9.3556    3.2033    0.0000 H       1  UNL1        0.0235
     75 H           9.1189    4.0476    0.0000 H       1  UNL1        0.0235
     76 H           8.2746    3.8108    0.0000 H       1  UNL1        0.0235
     77 H           8.3485    3.8117    0.0000 H       1  UNL1        0.0235
     78 H           7.4990    4.0288    0.0000 H       1  UNL1        0.0235
     79 H           7.2818    3.1793    0.0000 H       1  UNL1        0.0235
     80 H          10.5965    0.1874    0.0000 H       1  UNL1        0.2951
@<TRIPOS>BOND
     1     1    30    1
     2     1    80    1
     3     2    30    2
     4     3     4    1
     5     3     6    1
     6     3     8    1
     7     3    17    1
     8     4     5    1
     9     4    13    1
    10     4    33    1
    11     5     7    1
    12     5    15    1
    13     5    20    1
    14     6     9    1
    15     6    14    1
    16     6    22    1
    17     7    10    1
    18     7    11    1
    19     7    34    1
    20     8    10    1
    21     8    35    1
    22     8    36    1
    23     9    12    1
    24     9    19    2
    25    10    37    1
    26    10    38    1
    27    11    21    1
    28    11    28    1
    29    11    29    1
    30    12    16    1
    31    12    24    1
    32    12    39    1
    33    13    19    1
    34    13    40    1
    35    13    41    1
    36    14    18    1
    37    14    42    1
    38    14    43    1
    39    15    23    1
    40    15    44    1
    41    15    45    1
    42    16    18    1
    43    16    25    1
    44    16    30    1
    45    17    48    1
    46    17    49    1
    47    17    50    1
    48    18    46    1
    49    18    47    1
    50    19    51    1
    51    20    52    1
    52    20    53    1
    53    20    54    1
    54    21    23    1
    55    21    55    1
    56    21    56    1
    57    22    57    1
    58    22    58    1
    59    22    59    1
    60    23    60    1
    61    23    61    1
    62    24    26    1
    63    24    62    1
    64    24    63    1
    65    25    27    1
    66    25    64    1
    67    25    65    1
    68    26    27    1
    69    26    31    1
    70    26    32    1
    71    27    66    1
    72    27    67    1
    73    28    71    1
    74    28    72    1
    75    28    73    1
    76    29    68    1
    77    29    69    1
    78    29    70    1
    79    31    74    1
    80    31    75    1
    81    31    76    1
    82    32    77    1
    83    32    78    1
    84    32    79    1
