@<TRIPOS>MOLECULE
IMPHY002741
 40 39 0 0 0
SMALL
GASTEIGER

@<TRIPOS>ATOM
      1 O           3.7320    1.5000    0.0000 O.3     1  UNL1       -0.3516
      2 O           4.5981    0.0000    0.0000 O.3     1  UNL1       -0.3516
      3 C           7.1962    1.5000    0.0000 C.3     1  UNL1       -0.0529
      4 C           6.3301    1.0000    0.0000 C.3     1  UNL1       -0.0485
      5 C           8.0622    1.0000    0.0000 C.3     1  UNL1       -0.0531
      6 C           5.4641    1.5000    0.0000 C.3     1  UNL1       -0.0016
      7 C           8.9282    1.5000    0.0000 C.3     1  UNL1       -0.0533
      8 C           4.5981    1.0000    0.0000 C.3     1  UNL1        0.1591
      9 C           9.7942    1.0000    0.0000 C.3     1  UNL1       -0.0559
     10 C          10.6603    1.5000    0.0000 C.3     1  UNL1       -0.0653
     11 C           3.7320   -0.5000    0.0000 C.3     1  UNL1        0.0478
     12 C           2.8660    1.0000    0.0000 C.3     1  UNL1        0.0478
     13 C           2.0000    1.5000    0.0000 C.3     1  UNL1       -0.0415
     14 C           3.7320   -1.5000    0.0000 C.3     1  UNL1       -0.0415
     15 H           7.5947    1.9750    0.0000 H       1  UNL1        0.0265
     16 H           6.7976    1.9750    0.0000 H       1  UNL1        0.0265
     17 H           5.9316    0.5251    0.0000 H       1  UNL1        0.0267
     18 H           6.7287    0.5251    0.0000 H       1  UNL1        0.0267
     19 H           7.6636    0.5251    0.0000 H       1  UNL1        0.0265
     20 H           8.4607    0.5251    0.0000 H       1  UNL1        0.0265
     21 H           5.8626    1.9750    0.0000 H       1  UNL1        0.0314
     22 H           5.0656    1.9750    0.0000 H       1  UNL1        0.0314
     23 H           9.3267    1.9750    0.0000 H       1  UNL1        0.0265
     24 H           8.5297    1.9750    0.0000 H       1  UNL1        0.0265
     25 H           4.5981    1.6200    0.0000 H       1  UNL1        0.0909
     26 H           9.3957    0.5251    0.0000 H       1  UNL1        0.0263
     27 H          10.1928    0.5251    0.0000 H       1  UNL1        0.0263
     28 H          10.9703    0.9631    0.0000 H       1  UNL1        0.0230
     29 H          11.1972    1.8100    0.0000 H       1  UNL1        0.0230
     30 H          10.3503    2.0369    0.0000 H       1  UNL1        0.0230
     31 H           3.5200    0.0826    0.0000 H       1  UNL1        0.0558
     32 H           3.1215   -0.6077    0.0000 H       1  UNL1        0.0558
     33 H           2.4675    0.5251    0.0000 H       1  UNL1        0.0558
     34 H           3.2646    0.5251    0.0000 H       1  UNL1        0.0558
     35 H           2.3100    2.0369    0.0000 H       1  UNL1        0.0252
     36 H           1.4631    1.8100    0.0000 H       1  UNL1        0.0252
     37 H           1.6900    0.9631    0.0000 H       1  UNL1        0.0252
     38 H           3.1120   -1.5000    0.0000 H       1  UNL1        0.0252
     39 H           3.7320   -2.1200    0.0000 H       1  UNL1        0.0252
     40 H           4.3520   -1.5000    0.0000 H       1  UNL1        0.0252
@<TRIPOS>BOND
     1     1     8    1
     2     1    12    1
     3     2     8    1
     4     2    11    1
     5     3     4    1
     6     3     5    1
     7     3    15    1
     8     3    16    1
     9     4     6    1
    10     4    17    1
    11     4    18    1
    12     5     7    1
    13     5    19    1
    14     5    20    1
    15     6     8    1
    16     6    21    1
    17     6    22    1
    18     7     9    1
    19     7    23    1
    20     7    24    1
    21     8    25    1
    22     9    10    1
    23     9    26    1
    24     9    27    1
    25    10    28    1
    26    10    29    1
    27    10    30    1
    28    11    14    1
    29    11    31    1
    30    11    32    1
    31    12    13    1
    32    12    33    1
    33    12    34    1
    34    13    35    1
    35    13    36    1
    36    13    37    1
    37    14    38    1
    38    14    39    1
    39    14    40    1
