@<TRIPOS>MOLECULE
IMPHY004933
 57 56 0 0 0
SMALL
GASTEIGER

@<TRIPOS>ATOM
      1 O          12.9292    1.2500    0.0000 O.3     1  UNL1       -0.3889
      2 O          12.0632   -1.2500    0.0000 O.3     1  UNL1       -0.3852
      3 O           9.4651    1.2500    0.0000 O.3     1  UNL1       -0.3878
      4 O           2.5369    0.2500    0.0000 O.3     1  UNL1       -0.4806
      5 O           3.4030   -1.2500    0.0000 O.2     1  UNL1       -0.2510
      6 C          13.7953   -0.2500    0.0000 C.3     1  UNL1       -0.0241
      7 C          12.9292    0.2500    0.0000 C.3     1  UNL1        0.0846
      8 C          14.6613    0.2500    0.0000 C.3     1  UNL1       -0.0506
      9 C          15.5273   -0.2500    0.0000 C.3     1  UNL1       -0.0530
     10 C          12.0632   -0.2500    0.0000 C.3     1  UNL1        0.0992
     11 C           7.7331    0.2500    0.0000 C.3     1  UNL1       -0.0504
     12 C           8.5991   -0.2500    0.0000 C.3     1  UNL1       -0.0232
     13 C           6.8671   -0.2500    0.0000 C.3     1  UNL1       -0.0530
     14 C           9.4651    0.2500    0.0000 C.3     1  UNL1        0.0734
     15 C          16.3933    0.2500    0.0000 C.3     1  UNL1       -0.0533
     16 C           6.0010    0.2500    0.0000 C.3     1  UNL1       -0.0526
     17 C          11.1972    0.2500    0.0000 C.2     1  UNL1       -0.0550
     18 C           5.1350   -0.2500    0.0000 C.3     1  UNL1       -0.0430
     19 C          10.3312   -0.2500    0.0000 C.2     1  UNL1       -0.0573
     20 C          17.2594   -0.2500    0.0000 C.3     1  UNL1       -0.0559
     21 C           4.2690    0.2500    0.0000 C.3     1  UNL1        0.0448
     22 C          18.1254    0.2500    0.0000 C.3     1  UNL1       -0.0653
     23 C           3.4030   -0.2500    0.0000 C.2     1  UNL1        0.3047
     24 H          13.3967   -0.7249    0.0000 H       1  UNL1        0.0291
     25 H          14.1938   -0.7249    0.0000 H       1  UNL1        0.0291
     26 H          12.1931    0.6750    0.0000 H       1  UNL1        0.0622
     27 H          15.0598    0.7249    0.0000 H       1  UNL1        0.0266
     28 H          14.2628    0.7249    0.0000 H       1  UNL1        0.0266
     29 H          15.1288   -0.7249    0.0000 H       1  UNL1        0.0265
     30 H          15.9258   -0.7249    0.0000 H       1  UNL1        0.0265
     31 H          12.7993   -0.6750    0.0000 H       1  UNL1        0.0663
     32 H           8.1316    0.7249    0.0000 H       1  UNL1        0.0266
     33 H           7.3346    0.7249    0.0000 H       1  UNL1        0.0266
     34 H           8.2006   -0.7249    0.0000 H       1  UNL1        0.0293
     35 H           8.9976   -0.7249    0.0000 H       1  UNL1        0.0293
     36 H           6.4685   -0.7249    0.0000 H       1  UNL1        0.0265
     37 H           7.2656   -0.7249    0.0000 H       1  UNL1        0.0265
     38 H          10.2013    0.6750    0.0000 H       1  UNL1        0.0637
     39 H          16.7919    0.7249    0.0000 H       1  UNL1        0.0265
     40 H          15.9948    0.7249    0.0000 H       1  UNL1        0.0265
     41 H           6.3996    0.7249    0.0000 H       1  UNL1        0.0265
     42 H           5.6025    0.7249    0.0000 H       1  UNL1        0.0265
     43 H          11.1972    0.8700    0.0000 H       1  UNL1        0.0596
     44 H           4.7365   -0.7249    0.0000 H       1  UNL1        0.0270
     45 H           5.5335   -0.7249    0.0000 H       1  UNL1        0.0270
     46 H          10.3312   -0.8700    0.0000 H       1  UNL1        0.0595
     47 H          16.8608   -0.7249    0.0000 H       1  UNL1        0.0263
     48 H          17.6579   -0.7249    0.0000 H       1  UNL1        0.0263
     49 H           4.6675    0.7249    0.0000 H       1  UNL1        0.0377
     50 H           3.8705    0.7249    0.0000 H       1  UNL1        0.0377
     51 H          13.4662    1.5600    0.0000 H       1  UNL1        0.2099
     52 H          11.5263   -1.5600    0.0000 H       1  UNL1        0.2103
     53 H          18.4354   -0.2869    0.0000 H       1  UNL1        0.0230
     54 H          18.6623    0.5600    0.0000 H       1  UNL1        0.0230
     55 H          17.8154    0.7869    0.0000 H       1  UNL1        0.0230
     56 H           8.9282    1.5600    0.0000 H       1  UNL1        0.2102
     57 H           2.0000   -0.0600    0.0000 H       1  UNL1        0.2951
@<TRIPOS>BOND
     1     1     7    1
     2     1    51    1
     3     2    10    1
     4     2    52    1
     5     3    14    1
     6     3    56    1
     7     4    23    1
     8     4    57    1
     9     5    23    2
    10     6     7    1
    11     6     8    1
    12     6    24    1
    13     6    25    1
    14     7    10    1
    15     7    26    1
    16     8     9    1
    17     8    27    1
    18     8    28    1
    19     9    15    1
    20     9    29    1
    21     9    30    1
    22    10    17    1
    23    10    31    1
    24    11    12    1
    25    11    13    1
    26    11    32    1
    27    11    33    1
    28    12    14    1
    29    12    34    1
    30    12    35    1
    31    13    16    1
    32    13    36    1
    33    13    37    1
    34    14    19    1
    35    14    38    1
    36    15    20    1
    37    15    39    1
    38    15    40    1
    39    16    18    1
    40    16    41    1
    41    16    42    1
    42    17    19    2
    43    17    43    1
    44    18    21    1
    45    18    44    1
    46    18    45    1
    47    19    46    1
    48    20    22    1
    49    20    47    1
    50    20    48    1
    51    21    23    1
    52    21    49    1
    53    21    50    1
    54    22    53    1
    55    22    54    1
    56    22    55    1
