@<TRIPOS>MOLECULE
IMPHY002463
 91 98 0 0 0
SMALL
GASTEIGER

@<TRIPOS>ATOM
      1 O           3.3162    0.9683    0.0000 O.3     1  UNL1       -0.3810
      2 O           2.8750    1.8064    0.0000 O.3     1  UNL1       -0.3851
      3 O           4.3925    0.6375    0.0000 O.3     1  UNL1       -0.3764
      4 O           6.2152    4.3994    0.0000 O.3     1  UNL1       -0.3791
      5 O           2.4983    3.9735    0.0000 O.3     1  UNL1       -0.3790
      6 O           2.0975    4.8573    0.0000 O.3     1  UNL1       -0.3793
      7 O           7.0812    0.1642    0.0000 O.3     1  UNL1       -0.4602
      8 O           6.2152   -1.3358    0.0000 O.2     1  UNL1       -0.2449
      9 O           9.1638   -4.1394    0.0000 O.2     1  UNL1       -0.2745
     10 O           5.8559   -2.9354    0.0000 O.2     1  UNL1       -0.2748
     11 N           7.4105    2.5703    0.0000 N.2     1  UNL1       -0.2881
     12 N           7.6052   -3.2755    0.0000 N.am    1  UNL1       -0.2094
     13 C           5.4638    2.9656    0.0000 C.3     1  UNL1        0.0315
     14 C           4.7855    3.5065    0.0000 C.3     1  UNL1       -0.0223
     15 C           5.4638    2.0980    0.0000 C.3     1  UNL1        0.0120
     16 C           3.9397    1.7501    0.0000 C.3     1  UNL1        0.1437
     17 C           3.9397    3.3134    0.0000 C.3     1  UNL1        0.0209
     18 C           6.4658    2.8595    0.0000 C.3     1  UNL1        0.0928
     19 C           3.5633    2.5318    0.0000 C.3     1  UNL1        0.1068
     20 C           4.7855    1.5571    0.0000 C.3     1  UNL1        0.0961
     21 C           6.2152    1.6642    0.0000 C.3     1  UNL1        0.0457
     22 C           4.8633    4.3706    0.0000 C.3     1  UNL1       -0.0415
     23 C           4.0656    4.7116    0.0000 C.3     1  UNL1        0.0123
     24 C           6.2152    3.3994    0.0000 C.3     1  UNL1        0.0666
     25 C           3.4947    4.0582    0.0000 C.3     1  UNL1        0.0693
     26 C           2.9184    2.8017    0.0000 C.3     1  UNL1        0.0059
     27 C           2.9184    4.2862    0.0000 C.3     1  UNL1        0.0662
     28 C           6.9665    2.0980    0.0000 C.3     1  UNL1       -0.0367
     29 C           6.9665    2.9656    0.0000 C.3     1  UNL1       -0.0251
     30 C           7.4105    1.8184    0.0000 C.2     1  UNL1        0.0099
     31 C           6.2152    0.6642    0.0000 C.3     1  UNL1        0.1036
     32 C           4.9923   -0.1626    0.0000 C.3     1  UNL1        0.0369
     33 C           7.0812    4.8994    0.0000 C.3     1  UNL1        0.0368
     34 C           2.0734    3.0683    0.0000 C.3     1  UNL1        0.0368
     35 C           2.1817    5.8538    0.0000 C.3     1  UNL1        0.0368
     36 C           7.0812   -0.8358    0.0000 C.2     1  UNL1        0.3410
     37 C           7.9472   -1.3358    0.0000 C.ar    1  UNL1        0.0807
     38 C           7.9472   -2.3358    0.0000 C.ar    1  UNL1        0.0578
     39 C           8.8132   -0.8358    0.0000 C.ar    1  UNL1       -0.0459
     40 C           8.8132   -2.8358    0.0000 C.ar    1  UNL1       -0.0390
     41 C           9.6793   -1.3358    0.0000 C.ar    1  UNL1       -0.0609
     42 C           9.6793   -2.3358    0.0000 C.ar    1  UNL1       -0.0599
     43 C           8.1644   -4.1045    0.0000 C.2     1  UNL1        0.2295
     44 C           6.6439   -3.5511    0.0000 C.2     1  UNL1        0.2269
     45 C           7.5487   -4.8925    0.0000 C.3     1  UNL1        0.0419
     46 C           6.6090   -4.5505    0.0000 C.3     1  UNL1        0.0357
     47 C           7.8244   -5.8538    0.0000 C.3     1  UNL1       -0.0536
     48 H           5.5671    3.8406    0.0000 H       1  UNL1        0.0312
     49 H           5.5274    1.2504    0.0000 H       1  UNL1        0.0344
     50 H           3.0906    3.2753    0.0000 H       1  UNL1        0.0358
     51 H           6.9103    3.5840    0.0000 H       1  UNL1        0.0581
     52 H           4.9859    0.9704    0.0000 H       1  UNL1        0.0629
     53 H           5.0460    4.9630    0.0000 H       1  UNL1        0.0272
     54 H           5.4716    4.2508    0.0000 H       1  UNL1        0.0272
     55 H           4.0863    5.5613    0.0000 H       1  UNL1        0.0351
     56 H           5.6782    3.7094    0.0000 H       1  UNL1        0.0602
     57 H           3.2146    4.6113    0.0000 H       1  UNL1        0.0603
     58 H           2.7564    2.2032    0.0000 H       1  UNL1        0.0319
     59 H           2.3038    2.8834    0.0000 H       1  UNL1        0.0319
     60 H           2.9965    4.9013    0.0000 H       1  UNL1        0.0600
     61 H           7.5771    2.2057    0.0000 H       1  UNL1        0.0276
     62 H           7.1786    1.5154    0.0000 H       1  UNL1        0.0276
     63 H           7.1786    3.5482    0.0000 H       1  UNL1        0.0291
     64 H           7.5771    2.8579    0.0000 H       1  UNL1        0.0291
     65 H           7.8761    1.4090    0.0000 H       1  UNL1        0.0785
     66 H           3.5427    0.3912    0.0000 H       1  UNL1        0.2105
     67 H           6.0031    0.0816    0.0000 H       1  UNL1        0.0707
     68 H           5.6046    0.7719    0.0000 H       1  UNL1        0.0707
     69 H           2.2721    1.9511    0.0000 H       1  UNL1        0.2103
     70 H           5.4884    0.2093    0.0000 H       1  UNL1        0.0524
     71 H           5.3642   -0.6587    0.0000 H       1  UNL1        0.0524
     72 H           4.4962   -0.5345    0.0000 H       1  UNL1        0.0524
     73 H           6.7712    5.4363    0.0000 H       1  UNL1        0.0524
     74 H           7.6181    5.2094    0.0000 H       1  UNL1        0.0524
     75 H           7.3912    4.3624    0.0000 H       1  UNL1        0.0524
     76 H           2.6347    2.8049    0.0000 H       1  UNL1        0.0524
     77 H           1.8100    2.5070    0.0000 H       1  UNL1        0.0524
     78 H           1.5122    3.3317    0.0000 H       1  UNL1        0.0524
     79 H           1.5639    5.9060    0.0000 H       1  UNL1        0.0524
     80 H           2.2339    6.4716    0.0000 H       1  UNL1        0.0524
     81 H           2.7995    5.8016    0.0000 H       1  UNL1        0.0524
     82 H           8.8132   -0.2158    0.0000 H       1  UNL1        0.0626
     83 H           8.8132   -3.4558    0.0000 H       1  UNL1        0.0636
     84 H          10.2162   -1.0258    0.0000 H       1  UNL1        0.0618
     85 H          10.2162   -2.6458    0.0000 H       1  UNL1        0.0618
     86 H           7.0953   -5.3154    0.0000 H       1  UNL1        0.0396
     87 H           6.4591   -5.1521    0.0000 H       1  UNL1        0.0366
     88 H           5.9951   -4.4642    0.0000 H       1  UNL1        0.0366
     89 H           8.4203   -5.6829    0.0000 H       1  UNL1        0.0237
     90 H           7.9953   -6.4498    0.0000 H       1  UNL1        0.0237
     91 H           7.2284   -6.0247    0.0000 H       1  UNL1        0.0237
@<TRIPOS>BOND
     1    16     1    1
     2     1    66    1
     3    19     2    1
     4     2    69    1
     5    20     3    1
     6     3    32    1
     7    24     4    1
     8     4    33    1
     9    25     5    1
    10     5    34    1
    11    27     6    1
    12     6    35    1
    13     7    31    1
    14     7    36    1
    15     8    36    2
    16     9    43    2
    17    10    44    2
    18    11    18    1
    19    11    30    2
    20    12    38    1
    21    12    43   am
    22    12    44   am
    23    13    14    1
    24    13    15    1
    25    13    18    1
    26    13    24    1
    27    14    17    1
    28    14    22    1
    29    14    48    1
    30    15    20    1
    31    15    21    1
    32    15    49    1
    33    16    18    1
    34    16    19    1
    35    16    20    1
    36    17    19    1
    37    17    25    1
    38    17    50    1
    39    18    51    1
    40    19    26    1
    41    20    52    1
    42    21    28    1
    43    21    30    1
    44    21    31    1
    45    22    23    1
    46    22    53    1
    47    22    54    1
    48    23    25    1
    49    23    27    1
    50    23    55    1
    51    24    29    1
    52    24    56    1
    53    25    57    1
    54    26    27    1
    55    26    58    1
    56    26    59    1
    57    27    60    1
    58    28    29    1
    59    28    61    1
    60    28    62    1
    61    29    63    1
    62    29    64    1
    63    30    65    1
    64    31    67    1
    65    31    68    1
    66    32    70    1
    67    32    71    1
    68    32    72    1
    69    33    73    1
    70    33    74    1
    71    33    75    1
    72    34    76    1
    73    34    77    1
    74    34    78    1
    75    35    79    1
    76    35    80    1
    77    35    81    1
    78    36    37    1
    79    37    38   ar
    80    37    39   ar
    81    38    40   ar
    82    39    41   ar
    83    39    82    1
    84    40    42   ar
    85    40    83    1
    86    41    42   ar
    87    41    84    1
    88    42    85    1
    89    43    45    1
    90    44    46    1
    91    45    46    1
    92    45    47    1
    93    45    86    1
    94    46    87    1
    95    46    88    1
    96    47    89    1
    97    47    90    1
    98    47    91    1
