@<TRIPOS>MOLECULE
IMPHY016374
 20 21 0 0 0
SMALL
GASTEIGER

@<TRIPOS>ATOM
      1 O           4.6660   -1.0000    0.0000 O.2     1  UNL1       -0.4220
      2 O           6.3981   -1.0000    0.0000 O.2     1  UNL1       -0.2449
      3 C           3.8000    0.5000    0.0000 C.ar    1  UNL1        0.0179
      4 C           3.8000   -0.5000    0.0000 C.ar    1  UNL1        0.1391
      5 C           5.5321    0.5000    0.0000 C.ar    1  UNL1        0.0346
      6 C           4.6660    1.0000    0.0000 C.ar    1  UNL1       -0.0414
      7 C           2.9061    1.0347    0.0000 C.ar    1  UNL1       -0.0511
      8 C           2.9061   -1.0347    0.0000 C.ar    1  UNL1       -0.0186
      9 C           5.5321   -0.5000    0.0000 C.ar    1  UNL1        0.3402
     10 C           6.3981    1.0000    0.0000 C.3     1  UNL1       -0.0329
     11 C           2.0000    0.5208    0.0000 C.ar    1  UNL1       -0.0610
     12 C           2.0000   -0.5208    0.0000 C.ar    1  UNL1       -0.0582
     13 H           4.6660    1.6200    0.0000 H       1  UNL1        0.0629
     14 H           2.9132    1.6546    0.0000 H       1  UNL1        0.0625
     15 H           2.9132   -1.6546    0.0000 H       1  UNL1        0.0654
     16 H           6.7081    0.4631    0.0000 H       1  UNL1        0.0280
     17 H           6.9350    1.3100    0.0000 H       1  UNL1        0.0280
     18 H           6.0881    1.5369    0.0000 H       1  UNL1        0.0280
     19 H           1.4643    0.8329    0.0000 H       1  UNL1        0.0618
     20 H           1.4643   -0.8329    0.0000 H       1  UNL1        0.0619
@<TRIPOS>BOND
     1     1     4   ar
     2     1     9   ar
     3     2     9    2
     4     3     4   ar
     5     3     6   ar
     6     3     7   ar
     7     4     8   ar
     8     5     6   ar
     9     5     9   ar
    10     5    10    1
    11     6    13    1
    12     7    11   ar
    13     7    14    1
    14     8    12   ar
    15     8    15    1
    16    10    16    1
    17    10    17    1
    18    10    18    1
    19    11    12   ar
    20    11    19    1
    21    12    20    1
