@<TRIPOS>MOLECULE
IMPHY000047
 45 45 0 0 0
SMALL
GASTEIGER

@<TRIPOS>ATOM
      1 O           6.8671   -2.7500    0.0000 O.3     1  UNL1       -0.3878
      2 O           7.7331    0.7500    0.0000 O.2     1  UNL1       -0.2927
      3 O           4.2690    4.7500    0.0000 O.3     1  UNL1       -0.4915
      4 O           2.5369    3.7500    0.0000 O.3     1  UNL1       -0.5033
      5 C           8.5991   -2.7500    0.0000 C.3     1  UNL1       -0.0232
      6 C           8.5991   -3.7500    0.0000 C.3     1  UNL1       -0.0507
      7 C           7.7331   -2.2500    0.0000 C.3     1  UNL1        0.0737
      8 C           9.4651   -4.2500    0.0000 C.3     1  UNL1       -0.0558
      9 C           6.0010    1.7500    0.0000 C.3     1  UNL1       -0.0206
     10 C           7.7331   -1.2500    0.0000 C.2     1  UNL1       -0.0526
     11 C           6.0010    0.7500    0.0000 C.3     1  UNL1        0.0138
     12 C           5.1350    2.2500    0.0000 C.ar    1  UNL1       -0.0433
     13 C           9.4651   -5.2500    0.0000 C.3     1  UNL1       -0.0653
     14 C           6.8671    0.2500    0.0000 C.2     1  UNL1        0.1562
     15 C           6.8671   -0.7500    0.0000 C.2     1  UNL1       -0.0207
     16 C           5.1350    3.2500    0.0000 C.ar    1  UNL1       -0.0131
     17 C           4.2690    1.7500    0.0000 C.ar    1  UNL1       -0.0549
     18 C           4.2690    3.7500    0.0000 C.ar    1  UNL1        0.1615
     19 C           3.4030    2.2500    0.0000 C.ar    1  UNL1       -0.0163
     20 C           3.4030    3.2500    0.0000 C.ar    1  UNL1        0.1585
     21 C           5.1350    5.2500    0.0000 C.3     1  UNL1        0.0790
     22 H           9.2097   -2.8577    0.0000 H       1  UNL1        0.0293
     23 H           8.8112   -2.1674    0.0000 H       1  UNL1        0.0293
     24 H           7.9885   -3.6423    0.0000 H       1  UNL1        0.0266
     25 H           8.3871   -4.3326    0.0000 H       1  UNL1        0.0266
     26 H           7.7331   -3.1000    0.0000 H       1  UNL1        0.0638
     27 H          10.0757   -4.3577    0.0000 H       1  UNL1        0.0263
     28 H           9.6772   -3.6674    0.0000 H       1  UNL1        0.0263
     29 H           6.6116    1.6423    0.0000 H       1  UNL1        0.0317
     30 H           6.2131    2.3326    0.0000 H       1  UNL1        0.0317
     31 H           5.3905    0.8577    0.0000 H       1  UNL1        0.0348
     32 H           5.7890    0.1674    0.0000 H       1  UNL1        0.0348
     33 H           8.2700   -0.9400    0.0000 H       1  UNL1        0.0598
     34 H           8.8451   -5.2500    0.0000 H       1  UNL1        0.0230
     35 H           9.4651   -5.8700    0.0000 H       1  UNL1        0.0230
     36 H          10.0851   -5.2500    0.0000 H       1  UNL1        0.0230
     37 H           6.3301   -1.0600    0.0000 H       1  UNL1        0.0650
     38 H           5.6720    3.5600    0.0000 H       1  UNL1        0.0658
     39 H           4.2690    1.1300    0.0000 H       1  UNL1        0.0621
     40 H           6.8671   -3.3700    0.0000 H       1  UNL1        0.2102
     41 H           2.8660    1.9400    0.0000 H       1  UNL1        0.0655
     42 H           2.0000    3.4400    0.0000 H       1  UNL1        0.2923
     43 H           5.4450    4.7131    0.0000 H       1  UNL1        0.0660
     44 H           5.6720    5.5600    0.0000 H       1  UNL1        0.0660
     45 H           4.8250    5.7869    0.0000 H       1  UNL1        0.0660
@<TRIPOS>BOND
     1     1     7    1
     2     1    40    1
     3     2    14    2
     4     3    18    1
     5     3    21    1
     6     4    20    1
     7     4    42    1
     8     5     6    1
     9     5     7    1
    10     5    22    1
    11     5    23    1
    12     6     8    1
    13     6    24    1
    14     6    25    1
    15     7    10    1
    16     7    26    1
    17     8    13    1
    18     8    27    1
    19     8    28    1
    20     9    11    1
    21     9    12    1
    22     9    29    1
    23     9    30    1
    24    10    15    2
    25    10    33    1
    26    11    14    1
    27    11    31    1
    28    11    32    1
    29    12    16   ar
    30    12    17   ar
    31    13    34    1
    32    13    35    1
    33    13    36    1
    34    14    15    1
    35    15    37    1
    36    16    18   ar
    37    16    38    1
    38    17    19   ar
    39    17    39    1
    40    18    20   ar
    41    19    20   ar
    42    19    41    1
    43    21    43    1
    44    21    44    1
    45    21    45    1
