@<TRIPOS>MOLECULE
IMPHY007959
 79 83 0 0 0
SMALL
GASTEIGER

@<TRIPOS>ATOM
      1 O           2.0000   -1.9012    0.0000 O.2     1  UNL1       -0.2968
      2 C           6.5271   -0.3489    0.0000 C.3     1  UNL1       -0.0230
      3 C           7.3931    0.1511    0.0000 C.3     1  UNL1       -0.0225
      4 C           5.6610    0.1511    0.0000 C.3     1  UNL1       -0.0294
      5 C           7.3931    1.1511    0.0000 C.3     1  UNL1       -0.0260
      6 C           4.7510   -0.3557    0.0000 C.3     1  UNL1       -0.0246
      7 C           4.7430   -1.3973    0.0000 C.3     1  UNL1       -0.0235
      8 C           8.2870    1.6858    0.0000 C.3     1  UNL1       -0.0072
      9 C           6.5431   -1.3904    0.0000 C.3     1  UNL1       -0.0465
     10 C           5.6610    1.1511    0.0000 C.3     1  UNL1       -0.0489
     11 C           6.5271    1.6511    0.0000 C.3     1  UNL1       -0.0486
     12 C           8.2870   -0.3835    0.0000 C.3     1  UNL1       -0.0431
     13 C           5.6451   -1.9181    0.0000 C.3     1  UNL1       -0.0483
     14 C           3.8242    0.2084    0.0000 C.3     1  UNL1       -0.0404
     15 C           3.8076   -1.9470    0.0000 C.3     1  UNL1        0.0267
     16 C           7.1698   -1.1149    0.0000 C.3     1  UNL1       -0.0588
     17 C           9.1931    1.1719    0.0000 C.2     1  UNL1       -0.0638
     18 C           7.7352   -0.7885    0.0000 C.3     1  UNL1       -0.0588
     19 C           9.1931    0.1303    0.0000 C.3     1  UNL1       -0.0304
     20 C           8.4971    2.6997    0.0000 C.3     1  UNL1       -0.0399
     21 C           4.7587    0.6442    0.0000 C.3     1  UNL1       -0.0590
     22 C           7.4172    2.1791    0.0000 C.3     1  UNL1       -0.0556
     23 C           2.8763   -0.3196    0.0000 C.3     1  UNL1        0.0069
     24 C           9.9554    1.8727    0.0000 C.2     1  UNL1       -0.0672
     25 C           9.5262    2.8150    0.0000 C.3     1  UNL1       -0.0304
     26 C           2.8680   -1.4046    0.0000 C.2     1  UNL1        0.1392
     27 C           3.3109   -2.8150    0.0000 C.3     1  UNL1       -0.0528
     28 C           4.3109   -2.8111    0.0000 C.3     1  UNL1       -0.0528
     29 C          10.9355    1.6740    0.0000 C.3     1  UNL1       -0.0253
     30 C          11.5976    2.4234    0.0000 C.3     1  UNL1       -0.0589
     31 C          11.2535    0.7259    0.0000 C.3     1  UNL1       -0.0589
     32 H           6.3972    0.5761    0.0000 H       1  UNL1        0.0312
     33 H           8.1325    0.7318    0.0000 H       1  UNL1        0.0315
     34 H           4.7463   -2.2473    0.0000 H       1  UNL1        0.0315
     35 H           6.7612   -1.9708    0.0000 H       1  UNL1        0.0271
     36 H           7.1523   -1.2749    0.0000 H       1  UNL1        0.0271
     37 H           5.4490    1.7337    0.0000 H       1  UNL1        0.0268
     38 H           5.0504    1.0435    0.0000 H       1  UNL1        0.0268
     39 H           6.9256    2.1261    0.0000 H       1  UNL1        0.0268
     40 H           6.1285    2.1261    0.0000 H       1  UNL1        0.0268
     41 H           7.8824   -0.8533    0.0000 H       1  UNL1        0.0274
     42 H           8.6806   -0.8626    0.0000 H       1  UNL1        0.0274
     43 H           5.2478   -2.3941    0.0000 H       1  UNL1        0.0269
     44 H           6.0460   -2.3910    0.0000 H       1  UNL1        0.0269
     45 H           4.2324    0.6750    0.0000 H       1  UNL1        0.0275
     46 H           3.4343    0.6904    0.0000 H       1  UNL1        0.0275
     47 H           6.6949   -1.5134    0.0000 H       1  UNL1        0.0235
     48 H           7.5684   -1.5899    0.0000 H       1  UNL1        0.0235
     49 H           7.6448   -0.7164    0.0000 H       1  UNL1        0.0235
     50 H           7.1526   -1.0006    0.0000 H       1  UNL1        0.0235
     51 H           7.9473   -1.3711    0.0000 H       1  UNL1        0.0235
     52 H           8.3178   -0.5764    0.0000 H       1  UNL1        0.0235
     53 H           9.4022   -0.4534    0.0000 H       1  UNL1        0.0310
     54 H           9.8040    0.2364    0.0000 H       1  UNL1        0.0310
     55 H           8.4932    3.3197    0.0000 H       1  UNL1        0.0277
     56 H           7.8802    2.7610    0.0000 H       1  UNL1        0.0277
     57 H           5.3787    0.6395    0.0000 H       1  UNL1        0.0235
     58 H           4.7635    1.2642    0.0000 H       1  UNL1        0.0235
     59 H           4.1388    0.6490    0.0000 H       1  UNL1        0.0235
     60 H           7.7230    2.7184    0.0000 H       1  UNL1        0.0238
     61 H           6.8779    2.4850    0.0000 H       1  UNL1        0.0238
     62 H           7.1113    1.6398    0.0000 H       1  UNL1        0.0238
     63 H           2.6718    0.2657    0.0000 H       1  UNL1        0.0342
     64 H           2.2647   -0.4210    0.0000 H       1  UNL1        0.0342
     65 H          10.1143    3.0113    0.0000 H       1  UNL1        0.0310
     66 H           9.3928    3.4205    0.0000 H       1  UNL1        0.0310
     67 H           2.7728   -2.5071    0.0000 H       1  UNL1        0.0239
     68 H           3.0030   -3.3531    0.0000 H       1  UNL1        0.0239
     69 H           3.8490   -3.1229    0.0000 H       1  UNL1        0.0239
     70 H           3.7752   -3.1232    0.0000 H       1  UNL1        0.0239
     71 H           4.6230   -3.3469    0.0000 H       1  UNL1        0.0239
     72 H           4.8466   -2.4991    0.0000 H       1  UNL1        0.0239
     73 H          10.5250    1.2094    0.0000 H       1  UNL1        0.0340
     74 H          10.6656    0.5288    0.0000 H       1  UNL1        0.0235
     75 H          11.4506    0.1381    0.0000 H       1  UNL1        0.0235
     76 H          11.8413    0.9231    0.0000 H       1  UNL1        0.0235
     77 H          12.0622    2.0130    0.0000 H       1  UNL1        0.0235
     78 H          12.0081    2.8881    0.0000 H       1  UNL1        0.0235
     79 H          11.1329    2.8340    0.0000 H       1  UNL1        0.0235
@<TRIPOS>BOND
     1     1    26    2
     2     2     3    1
     3     2     4    1
     4     2     9    1
     5     2    16    1
     6     3     5    1
     7     3    12    1
     8     3    18    1
     9     4     6    1
    10     4    10    1
    11     4    32    1
    12     5     8    1
    13     5    11    1
    14     5    33    1
    15     6     7    1
    16     6    14    1
    17     6    21    1
    18     7    13    1
    19     7    15    1
    20     7    34    1
    21     8    17    1
    22     8    20    1
    23     8    22    1
    24     9    13    1
    25     9    35    1
    26     9    36    1
    27    10    11    1
    28    10    37    1
    29    10    38    1
    30    11    39    1
    31    11    40    1
    32    12    19    1
    33    12    41    1
    34    12    42    1
    35    13    43    1
    36    13    44    1
    37    14    23    1
    38    14    45    1
    39    14    46    1
    40    15    26    1
    41    15    27    1
    42    15    28    1
    43    16    47    1
    44    16    48    1
    45    16    49    1
    46    17    19    1
    47    17    24    2
    48    18    50    1
    49    18    51    1
    50    18    52    1
    51    19    53    1
    52    19    54    1
    53    20    25    1
    54    20    55    1
    55    20    56    1
    56    21    57    1
    57    21    58    1
    58    21    59    1
    59    22    60    1
    60    22    61    1
    61    22    62    1
    62    23    26    1
    63    23    63    1
    64    23    64    1
    65    24    25    1
    66    24    29    1
    67    25    65    1
    68    25    66    1
    69    27    67    1
    70    27    68    1
    71    27    69    1
    72    28    70    1
    73    28    71    1
    74    28    72    1
    75    29    30    1
    76    29    31    1
    77    29    73    1
    78    30    77    1
    79    30    78    1
    80    30    79    1
    81    31    74    1
    82    31    75    1
    83    31    76    1
