@<TRIPOS>MOLECULE
IMPHY000974
 58 62 0 0 0
SMALL
GASTEIGER

@<TRIPOS>ATOM
      1 O           2.9766   -0.1046    0.0000 O.3     1  UNL1       -0.3416
      2 O           3.8136   -0.5803    0.0000 O.3     1  UNL1       -0.3850
      3 O           5.4456    2.5625    0.0000 O.3     1  UNL1       -0.3876
      4 O           2.8817   -1.8784    0.0000 O.3     1  UNL1       -0.3639
      5 O           2.0637    2.6379    0.0000 O.3     1  UNL1       -0.3884
      6 O           7.0514   -3.1551    0.0000 O.3     1  UNL1       -0.3947
      7 C           4.5796    0.0625    0.0000 C.3     1  UNL1        0.1064
      8 C           4.3704   -0.9094    0.0000 C.3     1  UNL1        0.0562
      9 C           5.4456    0.5625    0.0000 C.3     1  UNL1       -0.0005
     10 C           5.4456    1.5625    0.0000 C.3     1  UNL1        0.0076
     11 C           3.7136    0.5625    0.0000 C.3     1  UNL1        0.0996
     12 C           4.5796    2.0625    0.0000 C.3     1  UNL1        0.0799
     13 C           3.3817   -1.0124    0.0000 C.3     1  UNL1        0.1766
     14 C           3.7136    1.5625    0.0000 C.3     1  UNL1        0.0459
     15 C           5.3553   -1.1245    0.0000 C.3     1  UNL1       -0.0230
     16 C           5.1570   -0.3208    0.0000 C.3     1  UNL1        0.0102
     17 C           5.9500   -0.3104    0.0000 C.3     1  UNL1       -0.0430
     18 C           2.9766    2.2295    0.0000 C.3     1  UNL1        0.0713
     19 C           4.3704    3.0343    0.0000 C.3     1  UNL1       -0.0204
     20 C           5.0383   -1.6537    0.0000 C.3     1  UNL1       -0.0516
     21 C           6.3774    1.9255    0.0000 C.3     1  UNL1       -0.0564
     22 C           3.3817    3.1373    0.0000 C.3     1  UNL1       -0.0212
     23 C           5.7099   -2.0595    0.0000 C.3     1  UNL1       -0.0171
     24 C           2.3062    1.4876    0.0000 C.3     1  UNL1       -0.0356
     25 C           6.6969   -2.2200    0.0000 C.3     1  UNL1        0.0470
     26 C           5.0774   -2.8341    0.0000 C.3     1  UNL1       -0.0601
     27 H           6.1818    0.9875    0.0000 H       1  UNL1        0.0336
     28 H           2.8765    0.7101    0.0000 H       1  UNL1        0.0631
     29 H           2.8765    1.4149    0.0000 H       1  UNL1        0.0383
     30 H           5.9698   -1.2075    0.0000 H       1  UNL1        0.0312
     31 H           5.2783   -0.9288    0.0000 H       1  UNL1        0.0323
     32 H           5.7768   -0.3069    0.0000 H       1  UNL1        0.0323
     33 H           6.3953   -0.7418    0.0000 H       1  UNL1        0.0272
     34 H           6.4389    0.0710    0.0000 H       1  UNL1        0.0272
     35 H           4.9869    3.1003    0.0000 H       1  UNL1        0.0294
     36 H           4.3695    3.6543    0.0000 H       1  UNL1        0.0294
     37 H           4.5768   -2.0677    0.0000 H       1  UNL1        0.0238
     38 H           5.4523   -2.1151    0.0000 H       1  UNL1        0.0238
     39 H           5.4997   -1.2396    0.0000 H       1  UNL1        0.0238
     40 H           6.6025    1.3478    0.0000 H       1  UNL1        0.0236
     41 H           6.9551    2.1505    0.0000 H       1  UNL1        0.0236
     42 H           6.1524    2.5032    0.0000 H       1  UNL1        0.0236
     43 H           3.5104    3.7438    0.0000 H       1  UNL1        0.0294
     44 H           2.7921    3.3291    0.0000 H       1  UNL1        0.0294
     45 H           5.0979   -1.9600    0.0000 H       1  UNL1        0.0323
     46 H           3.9213   -1.1909    0.0000 H       1  UNL1        0.2103
     47 H           5.4456    3.1825    0.0000 H       1  UNL1        0.2102
     48 H           2.2617   -1.8784    0.0000 H       1  UNL1        0.2128
     49 H           1.8461    1.9032    0.0000 H       1  UNL1        0.0257
     50 H           1.8905    1.0275    0.0000 H       1  UNL1        0.0257
     51 H           2.7662    1.0719    0.0000 H       1  UNL1        0.0257
     52 H           7.3060   -2.1042    0.0000 H       1  UNL1        0.0560
     53 H           6.6886   -1.6001    0.0000 H       1  UNL1        0.0560
     54 H           2.0000    3.2546    0.0000 H       1  UNL1        0.2102
     55 H           4.5971   -2.4419    0.0000 H       1  UNL1        0.0233
     56 H           4.6852   -3.3143    0.0000 H       1  UNL1        0.0233
     57 H           5.5576   -3.2262    0.0000 H       1  UNL1        0.0233
     58 H           7.6634   -3.2546    0.0000 H       1  UNL1        0.2094
@<TRIPOS>BOND
     1     1    11    1
     2     1    13    1
     3     7     2    1
     4     2    46    1
     5    12     3    1
     6     3    47    1
     7     4    13    1
     8     4    48    1
     9    18     5    1
    10     5    54    1
    11     6    25    1
    12     6    58    1
    13     7     8    1
    14     7     9    1
    15     7    11    1
    16     8    13    1
    17     8    15    1
    18     8    20    1
    19     9    10    1
    20     9    17    1
    21     9    27    1
    22    10    12    1
    23    10    16    1
    24    10    21    1
    25    11    14    1
    26    11    28    1
    27    12    14    1
    28    12    19    1
    29    13    16    1
    30    14    18    1
    31    14    29    1
    32    15    17    1
    33    15    23    1
    34    15    30    1
    35    16    31    1
    36    16    32    1
    37    17    33    1
    38    17    34    1
    39    18    22    1
    40    18    24    1
    41    19    22    1
    42    19    35    1
    43    19    36    1
    44    20    37    1
    45    20    38    1
    46    20    39    1
    47    21    40    1
    48    21    41    1
    49    21    42    1
    50    22    43    1
    51    22    44    1
    52    23    25    1
    53    23    26    1
    54    23    45    1
    55    24    49    1
    56    24    50    1
    57    24    51    1
    58    25    52    1
    59    25    53    1
    60    26    55    1
    61    26    56    1
    62    26    57    1
