@<TRIPOS>MOLECULE
IMPHY016187
 20 20 0 0 0
SMALL
GASTEIGER

@<TRIPOS>ATOM
      1 C           2.0000    0.5000    0.0000 C.3     1  UNL1       -0.0462
      2 C           2.0000   -0.5000    0.0000 C.3     1  UNL1       -0.0345
      3 C           2.7071    1.2071    0.0000 C.3     1  UNL1       -0.0345
      4 C           2.7071   -1.2071    0.0000 C.2     1  UNL1       -0.0876
      5 C           3.7071    1.2071    0.0000 C.2     1  UNL1       -0.0876
      6 C           4.4142   -0.5000    0.0000 C.3     1  UNL1       -0.0165
      7 C           3.7071   -1.2071    0.0000 C.2     1  UNL1       -0.0842
      8 C           4.4142    0.5000    0.0000 C.2     1  UNL1       -0.0842
      9 H           1.6900    1.0369    0.0000 H       1  UNL1        0.0271
     10 H           1.4011    0.3395    0.0000 H       1  UNL1        0.0271
     11 H           1.4011   -0.3395    0.0000 H       1  UNL1        0.0307
     12 H           1.6900   -1.0369    0.0000 H       1  UNL1        0.0307
     13 H           2.8676    1.8060    0.0000 H       1  UNL1        0.0307
     14 H           2.1702    1.5171    0.0000 H       1  UNL1        0.0307
     15 H           2.4698   -1.7799    0.0000 H       1  UNL1        0.0569
     16 H           3.9444    1.7799    0.0000 H       1  UNL1        0.0569
     17 H           4.7242   -1.0369    0.0000 H       1  UNL1        0.0350
     18 H           5.0131   -0.3395    0.0000 H       1  UNL1        0.0350
     19 H           3.9444   -1.7799    0.0000 H       1  UNL1        0.0572
     20 H           4.9870    0.7373    0.0000 H       1  UNL1        0.0572
@<TRIPOS>BOND
     1     1     2    1
     2     1     3    1
     3     1     9    1
     4     1    10    1
     5     2     4    1
     6     2    11    1
     7     2    12    1
     8     3     5    1
     9     3    13    1
    10     3    14    1
    11     4     7    2
    12     4    15    1
    13     5     8    2
    14     5    16    1
    15     6     7    1
    16     6     8    1
    17     6    17    1
    18     6    18    1
    19     7    19    1
    20     8    20    1
