@<TRIPOS>MOLECULE
IMPHY013839
 33 32 0 0 0
SMALL
GASTEIGER

@<TRIPOS>ATOM
      1 O           2.5369   -0.4330    0.0000 O.3     1  UNL1       -0.3891
      2 C           6.8671    0.0670    0.0000 C.3     1  UNL1       -0.0441
      3 C           6.0010    0.5670    0.0000 C.3     1  UNL1       -0.0504
      4 C           5.1350    0.0670    0.0000 C.3     1  UNL1       -0.0502
      5 C           4.2690    0.5670    0.0000 C.3     1  UNL1       -0.0245
      6 C           3.4030    0.0670    0.0000 C.3     1  UNL1        0.0605
      7 C           7.7331    0.5670    0.0000 C.3     1  UNL1       -0.0533
      8 C           6.8671   -0.9330    0.0000 C.3     1  UNL1       -0.0624
      9 C           2.9030    0.9330    0.0000 C.3     1  UNL1       -0.0363
     10 C           3.9030   -0.7990    0.0000 C.3     1  UNL1       -0.0363
     11 C           8.5991    0.0670    0.0000 C.3     1  UNL1       -0.0650
     12 H           6.3301   -0.2430    0.0000 H       1  UNL1        0.0298
     13 H           6.3996    1.0419    0.0000 H       1  UNL1        0.0268
     14 H           5.6025    1.0419    0.0000 H       1  UNL1        0.0268
     15 H           4.7365   -0.4080    0.0000 H       1  UNL1        0.0266
     16 H           5.5335   -0.4080    0.0000 H       1  UNL1        0.0266
     17 H           4.6675    1.0419    0.0000 H       1  UNL1        0.0293
     18 H           3.8705    1.0419    0.0000 H       1  UNL1        0.0293
     19 H           8.1316    1.0419    0.0000 H       1  UNL1        0.0265
     20 H           7.3346    1.0419    0.0000 H       1  UNL1        0.0265
     21 H           6.2471   -0.9330    0.0000 H       1  UNL1        0.0232
     22 H           6.8671   -1.5530    0.0000 H       1  UNL1        0.0232
     23 H           7.4871   -0.9330    0.0000 H       1  UNL1        0.0232
     24 H           3.4399    1.2430    0.0000 H       1  UNL1        0.0257
     25 H           2.5930    1.4700    0.0000 H       1  UNL1        0.0257
     26 H           2.3660    0.6230    0.0000 H       1  UNL1        0.0257
     27 H           3.3660   -1.1090    0.0000 H       1  UNL1        0.0257
     28 H           4.2130   -1.3360    0.0000 H       1  UNL1        0.0257
     29 H           4.4399   -0.4890    0.0000 H       1  UNL1        0.0257
     30 H           8.2891   -0.4699    0.0000 H       1  UNL1        0.0230
     31 H           9.1360   -0.2430    0.0000 H       1  UNL1        0.0230
     32 H           8.9091    0.6039    0.0000 H       1  UNL1        0.0230
     33 H           2.0000   -0.1230    0.0000 H       1  UNL1        0.2101
@<TRIPOS>BOND
     1     1     6    1
     2     1    33    1
     3     2     3    1
     4     2     7    1
     5     2     8    1
     6     2    12    1
     7     3     4    1
     8     3    13    1
     9     3    14    1
    10     4     5    1
    11     4    15    1
    12     4    16    1
    13     5     6    1
    14     5    17    1
    15     5    18    1
    16     6     9    1
    17     6    10    1
    18     7    11    1
    19     7    19    1
    20     7    20    1
    21     8    21    1
    22     8    22    1
    23     8    23    1
    24     9    24    1
    25     9    25    1
    26     9    26    1
    27    10    27    1
    28    10    28    1
    29    10    29    1
    30    11    30    1
    31    11    31    1
    32    11    32    1
