@<TRIPOS>MOLECULE
IMPHY017929
 11 11 0 0 0
SMALL
GASTEIGER

@<TRIPOS>ATOM
      1 C           1.2375    1.4290    0.0000 C.2     1  UNL1        0.1875
      2 C           2.0625    1.4290    0.0000 C.2     1  UNL1        0.0196
      3 C           2.4750    0.7144    0.0000 C.3     1  UNL1        0.0478
      4 C           2.0625    0.0000    0.0000 C.3     1  UNL1        0.0343
      5 C           1.2375    0.0000    0.0000 C.2     1  UNL1       -0.0266
      6 C           0.8250    0.7144    0.0000 C.2     1  UNL1        0.0125
      7 O           0.8250    2.1434    0.0000 O.2     1  UNL1       -0.2873
      8 C           3.3000    0.7144    0.0000 C.2     1  UNL1       -0.0397
      9 C           3.7125    0.0000    0.0000 C.2     1  UNL1       -0.0088
     10 C           3.7125    1.4290    0.0000 C.3     1  UNL1        0.0267
     11 C           0.0000    0.7144    0.0000 C.3     1  UNL1        0.0340
@<TRIPOS>BOND
     1     1     2    2
     2     1     6    1
     3     1     7    1
     4     2     3    1
     5     3     4    1
     6     3     8    1
     7     4     5    1
     8     5     6    2
     9     6    11    1
    10     8     9    2
    11     8    10    1
