@<TRIPOS>MOLECULE
IMPHY007626
 42 45 0 0 0
SMALL
GASTEIGER

@<TRIPOS>ATOM
      1 O           7.3424   -1.3532    0.0000 O.3     1  UNL1       -0.4526
      2 O           7.3424   -2.9627    0.0000 O.3     1  UNL1       -0.4526
      3 O           3.8164    2.8764    0.0000 O.3     1  UNL1       -0.5068
      4 C           2.8641   -1.6371    0.0000 C.3     1  UNL1       -0.0302
      5 C           2.8641   -2.6788    0.0000 C.3     1  UNL1       -0.0365
      6 C           3.7702   -1.1233    0.0000 C.3     1  UNL1        0.0124
      7 C           3.7702   -3.1926    0.0000 C.3     1  UNL1       -0.0244
      8 C           4.6641   -1.6580    0.0000 C.ar    1  UNL1       -0.0328
      9 C           4.6641   -2.6580    0.0000 C.ar    1  UNL1       -0.0396
     10 C           2.0000   -1.1338    0.0000 C.3     1  UNL1       -0.0613
     11 C           2.0000   -3.1821    0.0000 C.3     1  UNL1       -0.0618
     12 C           3.7817   -0.1234    0.0000 C.ar    1  UNL1       -0.0395
     13 C           5.5301   -1.1580    0.0000 C.ar    1  UNL1       -0.0121
     14 C           5.5301   -3.1580    0.0000 C.ar    1  UNL1       -0.0127
     15 C           6.3961   -1.6580    0.0000 C.ar    1  UNL1        0.1665
     16 C           6.3961   -2.6580    0.0000 C.ar    1  UNL1        0.1665
     17 C           4.6535    0.3666    0.0000 C.ar    1  UNL1       -0.0545
     18 C           2.9215    0.3866    0.0000 C.ar    1  UNL1       -0.0545
     19 C           4.6650    1.3665    0.0000 C.ar    1  UNL1       -0.0199
     20 C           2.9331    1.3866    0.0000 C.ar    1  UNL1       -0.0199
     21 C           7.9260   -2.1580    0.0000 C.3     1  UNL1        0.2332
     22 C           3.8048    1.8765    0.0000 C.ar    1  UNL1        0.1169
     23 H           2.3266   -1.9461    0.0000 H       1  UNL1        0.0310
     24 H           2.8677   -3.2988    0.0000 H       1  UNL1        0.0304
     25 H           3.2362   -0.8081    0.0000 H       1  UNL1        0.0400
     26 H           3.3765   -3.6716    0.0000 H       1  UNL1        0.0316
     27 H           4.1748   -3.6624    0.0000 H       1  UNL1        0.0316
     28 H           2.3121   -0.5981    0.0000 H       1  UNL1        0.0233
     29 H           1.4643   -0.8217    0.0000 H       1  UNL1        0.0233
     30 H           1.6879   -1.6696    0.0000 H       1  UNL1        0.0233
     31 H           1.6879   -2.6464    0.0000 H       1  UNL1        0.0233
     32 H           1.4643   -3.4942    0.0000 H       1  UNL1        0.0233
     33 H           2.3121   -3.7178    0.0000 H       1  UNL1        0.0233
     34 H           5.5301   -0.5380    0.0000 H       1  UNL1        0.0658
     35 H           5.5301   -3.7780    0.0000 H       1  UNL1        0.0658
     36 H           5.1868    0.0504    0.0000 H       1  UNL1        0.0622
     37 H           2.3810    0.0828    0.0000 H       1  UNL1        0.0622
     38 H           5.2055    1.6703    0.0000 H       1  UNL1        0.0654
     39 H           2.3998    1.7027    0.0000 H       1  UNL1        0.0654
     40 H           8.3869   -2.5727    0.0000 H       1  UNL1        0.1166
     41 H           8.3869   -1.7432    0.0000 H       1  UNL1        0.1166
     42 H           3.2831    3.1926    0.0000 H       1  UNL1        0.2921
@<TRIPOS>BOND
     1     1    15    1
     2     1    21    1
     3     2    16    1
     4     2    21    1
     5     3    22    1
     6     3    42    1
     7     4     5    1
     8     4     6    1
     9     4    10    1
    10     4    23    1
    11     5     7    1
    12     5    11    1
    13     5    24    1
    14     6     8    1
    15     6    12    1
    16     6    25    1
    17     7     9    1
    18     7    26    1
    19     7    27    1
    20     8     9   ar
    21     8    13   ar
    22     9    14   ar
    23    10    28    1
    24    10    29    1
    25    10    30    1
    26    11    31    1
    27    11    32    1
    28    11    33    1
    29    12    17   ar
    30    12    18   ar
    31    13    15   ar
    32    13    34    1
    33    14    16   ar
    34    14    35    1
    35    15    16   ar
    36    17    19   ar
    37    17    36    1
    38    18    20   ar
    39    18    37    1
    40    19    22   ar
    41    19    38    1
    42    20    22   ar
    43    20    39    1
    44    21    40    1
    45    21    41    1
