@<TRIPOS>MOLECULE
IMPHY003306
 179 188 0 0 0
SMALL
GASTEIGER

@<TRIPOS>ATOM
      1 O          16.5048    6.5450    0.0000 O.3     1  UNL1       -0.3915
      2 O          20.1458    5.5000    0.0000 O.3     1  UNL1       -0.3423
      3 O          20.1136    3.4086    0.0000 O.3     1  UNL1       -0.3892
      4 O          18.3453    7.2918    0.0000 O.3     1  UNL1       -0.3944
      5 O          11.1972    2.4824    0.0000 O.3     1  UNL1       -0.4318
      6 O          12.0632    3.9824    0.0000 O.2     1  UNL1       -0.2501
      7 O          20.9944    3.9901    0.0000 O.3     1  UNL1       -0.3405
      8 O          21.8893    6.4799    0.0000 O.3     1  UNL1       -0.3841
      9 O          10.3312    3.9824    0.0000 O.3     1  UNL1       -0.3368
     10 O          23.6097    5.4600    0.0000 O.3     1  UNL1       -0.3864
     11 O          23.5866    3.4601    0.0000 O.3     1  UNL1       -0.3865
     12 O           9.4651    1.4824    0.0000 O.3     1  UNL1       -0.3366
     13 O           7.7331    2.4824    0.0000 O.3     1  UNL1       -0.3864
     14 O          20.9713    1.9902    0.0000 O.3     1  UNL1       -0.3924
     15 O           7.7331    4.4824    0.0000 O.3     1  UNL1       -0.3869
     16 O           7.7331    1.4824    0.0000 O.3     1  UNL1       -0.3431
     17 O           9.4651   -0.5176    0.0000 O.3     1  UNL1       -0.3841
     18 O           7.7331   -1.5176    0.0000 O.3     1  UNL1       -0.3864
     19 O           6.0010   -0.5176    0.0000 O.3     1  UNL1       -0.3402
     20 O           6.8671   -2.0176    0.0000 O.3     1  UNL1       -0.3461
     21 O           4.2690   -1.5176    0.0000 O.3     1  UNL1       -0.3841
     22 O           4.2690   -3.5176    0.0000 O.3     1  UNL1       -0.3401
     23 O           6.0010   -4.5176    0.0000 O.3     1  UNL1       -0.3868
     24 O           5.1350   -5.0176    0.0000 O.3     1  UNL1       -0.3431
     25 O           2.5369   -4.5176    0.0000 O.3     1  UNL1       -0.3841
     26 O           2.5369   -6.5176    0.0000 O.3     1  UNL1       -0.3864
     27 O           4.2690   -7.5176    0.0000 O.3     1  UNL1       -0.3866
     28 C          15.6069    3.9826    0.0000 C.3     1  UNL1       -0.0170
     29 C          17.3829    3.9758    0.0000 C.3     1  UNL1       -0.0202
     30 C          16.4691    3.4760    0.0000 C.3     1  UNL1       -0.0255
     31 C          14.7371    3.4893    0.0000 C.3     1  UNL1       -0.0050
     32 C          17.3990    5.0173    0.0000 C.3     1  UNL1        0.0007
     33 C          15.5989    5.0242    0.0000 C.3     1  UNL1       -0.0201
     34 C          16.5010    5.5451    0.0000 C.3     1  UNL1        0.0597
     35 C          18.3386    5.5598    0.0000 C.3     1  UNL1        0.0254
     36 C          14.7294    2.4894    0.0000 C.2     1  UNL1       -0.0629
     37 C          18.3054    3.4046    0.0000 C.3     1  UNL1       -0.0183
     38 C          16.4614    2.4760    0.0000 C.3     1  UNL1       -0.0306
     39 C          13.8313    1.9616    0.0000 C.3     1  UNL1       -0.0031
     40 C          13.8473    4.0309    0.0000 C.3     1  UNL1       -0.0424
     41 C          12.9292    2.4824    0.0000 C.3     1  UNL1        0.0744
     42 C          19.2741    5.0101    0.0000 C.3     1  UNL1        0.0954
     43 C          14.9701    4.7536    0.0000 C.3     1  UNL1       -0.0584
     44 C          19.2573    3.9252    0.0000 C.3     1  UNL1        0.0825
     45 C          12.9373    3.5240    0.0000 C.3     1  UNL1       -0.0359
     46 C          17.3675    2.9759    0.0000 C.3     1  UNL1       -0.0588
     47 C          15.5915    1.9827    0.0000 C.2     1  UNL1       -0.0836
     48 C          14.4023    4.4316    0.0000 C.3     1  UNL1       -0.0553
     49 C          13.8480    0.8767    0.0000 C.3     1  UNL1       -0.0403
     50 C          11.9814    1.9545    0.0000 C.3     1  UNL1       -0.0362
     51 C          18.8420    6.4239    0.0000 C.3     1  UNL1        0.0524
     52 C          12.9126    0.3270    0.0000 C.3     1  UNL1       -0.0343
     53 C          17.8420    6.4277    0.0000 C.3     1  UNL1       -0.0547
     54 C          11.9730    0.8695    0.0000 C.3     1  UNL1       -0.0468
     55 C          12.0632    2.9824    0.0000 C.2     1  UNL1        0.3161
     56 C          13.4160   -0.5371    0.0000 C.3     1  UNL1       -0.0598
     57 C          12.4160   -0.5409    0.0000 C.3     1  UNL1       -0.0598
     58 C          21.0060    4.9900    0.0000 C.3     1  UNL1        0.1883
     59 C          21.8777    5.4800    0.0000 C.3     1  UNL1        0.1341
     60 C          10.3312    2.9824    0.0000 C.3     1  UNL1        0.2338
     61 C          22.7379    4.9700    0.0000 C.3     1  UNL1        0.1141
     62 C          21.8546    3.4801    0.0000 C.3     1  UNL1        0.1130
     63 C          22.7264    3.9701    0.0000 C.3     1  UNL1        0.1119
     64 C           9.4651    2.4824    0.0000 C.3     1  UNL1        0.1520
     65 C           8.5991    2.9824    0.0000 C.3     1  UNL1        0.1152
     66 C          21.8431    2.4802    0.0000 C.3     1  UNL1        0.0730
     67 C           9.4651    4.4824    0.0000 C.3     1  UNL1        0.0802
     68 C           8.5991    3.9824    0.0000 C.3     1  UNL1        0.1070
     69 C           8.5991    0.9824    0.0000 C.3     1  UNL1        0.1885
     70 C           8.5991   -0.0176    0.0000 C.3     1  UNL1        0.1341
     71 C           7.7331   -0.5176    0.0000 C.3     1  UNL1        0.1143
     72 C           6.8671    0.9824    0.0000 C.3     1  UNL1        0.0877
     73 C           6.8671   -0.0176    0.0000 C.3     1  UNL1        0.1160
     74 C           6.0010    1.4824    0.0000 C.3     1  UNL1       -0.0361
     75 C           6.0010   -1.5176    0.0000 C.3     1  UNL1        0.1880
     76 C           5.1350   -2.0176    0.0000 C.3     1  UNL1        0.1345
     77 C           5.1350   -3.0176    0.0000 C.3     1  UNL1        0.1202
     78 C           6.8671   -3.0176    0.0000 C.3     1  UNL1        0.0792
     79 C           6.0010   -3.5176    0.0000 C.3     1  UNL1        0.1073
     80 C           4.2690   -4.5176    0.0000 C.3     1  UNL1        0.1883
     81 C           3.4030   -5.0176    0.0000 C.3     1  UNL1        0.1341
     82 C           3.4030   -6.0176    0.0000 C.3     1  UNL1        0.1140
     83 C           5.1350   -6.0176    0.0000 C.3     1  UNL1        0.0873
     84 C           4.2690   -6.5176    0.0000 C.3     1  UNL1        0.1095
     85 C           6.0010   -6.5176    0.0000 C.3     1  UNL1       -0.0361
     86 H          16.5080    4.2351    0.0000 H       1  UNL1        0.0315
     87 H          18.0677    4.6560    0.0000 H       1  UNL1        0.0338
     88 H          14.8388    5.0212    0.0000 H       1  UNL1        0.0296
     89 H          15.2163    5.6810    0.0000 H       1  UNL1        0.0296
     90 H          17.1744    5.8976    0.0000 H       1  UNL1        0.0596
     91 H          18.6676    2.7363    0.0000 H       1  UNL1        0.0296
     92 H          17.9078    2.7568    0.0000 H       1  UNL1        0.0296
     93 H          17.2215    2.4701    0.0000 H       1  UNL1        0.0310
     94 H          16.8364    1.8148    0.0000 H       1  UNL1        0.0310
     95 H          13.1902    1.5532    0.0000 H       1  UNL1        0.0357
     96 H          13.4800    4.6964    0.0000 H       1  UNL1        0.0274
     97 H          14.2400    4.6817    0.0000 H       1  UNL1        0.0274
     98 H          19.2275    5.7688    0.0000 H       1  UNL1        0.0629
     99 H          15.2356    5.4658    0.0000 H       1  UNL1        0.0235
    100 H          14.4861    5.3397    0.0000 H       1  UNL1        0.0235
    101 H          14.2205    4.6274    0.0000 H       1  UNL1        0.0235
    102 H          19.1875    3.1683    0.0000 H       1  UNL1        0.0619
    103 H          12.1772    3.5328    0.0000 H       1  UNL1        0.0276
    104 H          12.5649    4.1866    0.0000 H       1  UNL1        0.0276
    105 H          16.7035    2.6060    0.0000 H       1  UNL1        0.0235
    106 H          17.3558    2.2159    0.0000 H       1  UNL1        0.0235
    107 H          18.0198    2.5858    0.0000 H       1  UNL1        0.0235
    108 H          15.5856    1.2226    0.0000 H       1  UNL1        0.0572
    109 H          14.8953    5.0101    0.0000 H       1  UNL1        0.0238
    110 H          14.1478    5.1478    0.0000 H       1  UNL1        0.0238
    111 H          13.6548    4.5693    0.0000 H       1  UNL1        0.0238
    112 H          14.6081    0.8854    0.0000 H       1  UNL1        0.0276
    113 H          14.2356    0.2228    0.0000 H       1  UNL1        0.0276
    114 H          11.2213    1.9634    0.0000 H       1  UNL1        0.0276
    115 H          11.6091    2.6172    0.0000 H       1  UNL1        0.0276
    116 H          19.5017    6.8014    0.0000 H       1  UNL1        0.0563
    117 H          19.4988    6.0413    0.0000 H       1  UNL1        0.0563
    118 H          18.2246    7.0845    0.0000 H       1  UNL1        0.0237
    119 H          17.4645    7.0874    0.0000 H       1  UNL1        0.0237
    120 H          17.0819    6.4307    0.0000 H       1  UNL1        0.0237
    121 H          11.5904    0.2127    0.0000 H       1  UNL1        0.0271
    122 H          11.2129    0.8724    0.0000 H       1  UNL1        0.0271
    123 H          16.5077    7.3051    0.0000 H       1  UNL1        0.2098
    124 H          20.7644    3.0160    0.0000 H       1  UNL1        0.2099
    125 H          13.0385   -1.1968    0.0000 H       1  UNL1        0.0235
    126 H          13.7986   -1.1939    0.0000 H       1  UNL1        0.0235
    127 H          14.1761   -0.5341    0.0000 H       1  UNL1        0.0235
    128 H          11.6559   -0.5439    0.0000 H       1  UNL1        0.0235
    129 H          12.0385   -1.2006    0.0000 H       1  UNL1        0.0235
    130 H          12.7986   -1.1977    0.0000 H       1  UNL1        0.0235
    131 H          21.6598    4.6024    0.0000 H       1  UNL1        0.0938
    132 H          17.9678    7.9515    0.0000 H       1  UNL1        0.2094
    133 H          21.2239    5.8676    0.0000 H       1  UNL1        0.0671
    134 H          10.3311    2.2223    0.0000 H       1  UNL1        0.1085
    135 H          22.0753    4.5976    0.0000 H       1  UNL1        0.0648
    136 H          21.1920    3.1077    0.0000 H       1  UNL1        0.0647
    137 H          23.3890    4.3425    0.0000 H       1  UNL1        0.0647
    138 H           9.4652    3.2425    0.0000 H       1  UNL1        0.0687
    139 H          21.8981    7.2400    0.0000 H       1  UNL1        0.2101
    140 H           7.9408    3.3625    0.0000 H       1  UNL1        0.0648
    141 H          22.6032    2.4715    0.0000 H       1  UNL1        0.0584
    142 H          22.2156    1.8176    0.0000 H       1  UNL1        0.0584
    143 H           9.0850    5.1406    0.0000 H       1  UNL1        0.0588
    144 H           9.8451    5.1407    0.0000 H       1  UNL1        0.0588
    145 H          24.2723    5.8324    0.0000 H       1  UNL1        0.2100
    146 H           7.9408    3.6023    0.0000 H       1  UNL1        0.0643
    147 H          24.2404    3.0725    0.0000 H       1  UNL1        0.2100
    148 H           9.2574    0.6023    0.0000 H       1  UNL1        0.0938
    149 H           7.0748    2.1023    0.0000 H       1  UNL1        0.2100
    150 H          20.3087    1.6178    0.0000 H       1  UNL1        0.2095
    151 H           7.0748    4.8625    0.0000 H       1  UNL1        0.2100
    152 H           9.2574    0.3625    0.0000 H       1  UNL1        0.0671
    153 H           7.0748   -0.8977    0.0000 H       1  UNL1        0.0648
    154 H           6.8670    1.7425    0.0000 H       1  UNL1        0.0621
    155 H           6.8670   -0.7777    0.0000 H       1  UNL1        0.0650
    156 H          10.1234   -0.8977    0.0000 H       1  UNL1        0.2101
    157 H           6.0010    2.2425    0.0000 H       1  UNL1        0.0255
    158 H           5.3427    1.8624    0.0000 H       1  UNL1        0.0255
    159 H           5.3427    1.1023    0.0000 H       1  UNL1        0.0255
    160 H           7.7331   -2.2777    0.0000 H       1  UNL1        0.2100
    161 H           6.0011   -2.2777    0.0000 H       1  UNL1        0.0937
    162 H           5.7933   -2.3977    0.0000 H       1  UNL1        0.0671
    163 H           5.7933   -2.6375    0.0000 H       1  UNL1        0.0651
    164 H           7.6272   -3.0176    0.0000 H       1  UNL1        0.0587
    165 H           7.2472   -3.6759    0.0000 H       1  UNL1        0.0587
    166 H           6.0011   -2.7575    0.0000 H       1  UNL1        0.0643
    167 H           3.6107   -1.1375    0.0000 H       1  UNL1        0.2101
    168 H           6.0010   -5.2777    0.0000 H       1  UNL1        0.2100
    169 H           3.6107   -4.1375    0.0000 H       1  UNL1        0.0938
    170 H           3.4029   -4.2575    0.0000 H       1  UNL1        0.0671
    171 H           3.4029   -6.7777    0.0000 H       1  UNL1        0.0648
    172 H           5.7933   -5.6375    0.0000 H       1  UNL1        0.0621
    173 H           3.6107   -6.8977    0.0000 H       1  UNL1        0.0646
    174 H           1.8786   -4.1376    0.0000 H       1  UNL1        0.2101
    175 H           6.0010   -7.2777    0.0000 H       1  UNL1        0.0255
    176 H           6.6593   -6.8977    0.0000 H       1  UNL1        0.0255
    177 H           6.6593   -6.1376    0.0000 H       1  UNL1        0.0255
    178 H           1.8786   -6.8976    0.0000 H       1  UNL1        0.2100
    179 H           4.2690   -8.2777    0.0000 H       1  UNL1        0.2100
@<TRIPOS>BOND
     1     1    34    1
     2     1   123    1
     3     2    42    1
     4     2    58    1
     5     3    44    1
     6     3   124    1
     7     4    51    1
     8     4   132    1
     9     5    55    1
    10     5    60    1
    11     6    55    2
    12     7    58    1
    13     7    62    1
    14     8    59    1
    15     8   139    1
    16     9    60    1
    17     9    67    1
    18    10    61    1
    19    10   145    1
    20    11    63    1
    21    11   147    1
    22    12    64    1
    23    12    69    1
    24    13    65    1
    25    13   149    1
    26    14    66    1
    27    14   150    1
    28    15    68    1
    29    15   151    1
    30    16    69    1
    31    16    72    1
    32    17    70    1
    33    17   156    1
    34    18    71    1
    35    18   160    1
    36    19    73    1
    37    19    75    1
    38    20    75    1
    39    20    78    1
    40    21    76    1
    41    21   167    1
    42    22    77    1
    43    22    80    1
    44    23    79    1
    45    23   168    1
    46    24    80    1
    47    24    83    1
    48    25    81    1
    49    25   174    1
    50    26    82    1
    51    26   178    1
    52    27    84    1
    53    27   179    1
    54    28    30    1
    55    28    31    1
    56    28    33    1
    57    28    43    1
    58    29    30    1
    59    29    32    1
    60    29    37    1
    61    29    46    1
    62    30    38    1
    63    30    86    1
    64    31    36    1
    65    31    40    1
    66    31    48    1
    67    32    34    1
    68    32    35    1
    69    32    87    1
    70    33    34    1
    71    33    88    1
    72    33    89    1
    73    34    90    1
    74    35    42    1
    75    35    51    1
    76    35    53    1
    77    36    39    1
    78    36    47    2
    79    37    44    1
    80    37    91    1
    81    37    92    1
    82    38    47    1
    83    38    93    1
    84    38    94    1
    85    39    41    1
    86    39    49    1
    87    39    95    1
    88    40    45    1
    89    40    96    1
    90    40    97    1
    91    41    45    1
    92    41    50    1
    93    41    55    1
    94    42    44    1
    95    42    98    1
    96    43    99    1
    97    43   100    1
    98    43   101    1
    99    44   102    1
   100    45   103    1
   101    45   104    1
   102    46   105    1
   103    46   106    1
   104    46   107    1
   105    47   108    1
   106    48   109    1
   107    48   110    1
   108    48   111    1
   109    49    52    1
   110    49   112    1
   111    49   113    1
   112    50    54    1
   113    50   114    1
   114    50   115    1
   115    51   116    1
   116    51   117    1
   117    52    54    1
   118    52    56    1
   119    52    57    1
   120    53   118    1
   121    53   119    1
   122    53   120    1
   123    54   121    1
   124    54   122    1
   125    56   125    1
   126    56   126    1
   127    56   127    1
   128    57   128    1
   129    57   129    1
   130    57   130    1
   131    58    59    1
   132    58   131    1
   133    59    61    1
   134    59   133    1
   135    60    64    1
   136    60   134    1
   137    61    63    1
   138    61   135    1
   139    62    63    1
   140    62    66    1
   141    62   136    1
   142    63   137    1
   143    64    65    1
   144    64   138    1
   145    65    68    1
   146    65   140    1
   147    66   141    1
   148    66   142    1
   149    67    68    1
   150    67   143    1
   151    67   144    1
   152    68   146    1
   153    69    70    1
   154    69   148    1
   155    70    71    1
   156    70   152    1
   157    71    73    1
   158    71   153    1
   159    72    73    1
   160    72    74    1
   161    72   154    1
   162    73   155    1
   163    74   157    1
   164    74   158    1
   165    74   159    1
   166    75    76    1
   167    75   161    1
   168    76    77    1
   169    76   162    1
   170    77    79    1
   171    77   163    1
   172    78    79    1
   173    78   164    1
   174    78   165    1
   175    79   166    1
   176    80    81    1
   177    80   169    1
   178    81    82    1
   179    81   170    1
   180    82    84    1
   181    82   171    1
   182    83    84    1
   183    83    85    1
   184    83   172    1
   185    84   173    1
   186    85   175    1
   187    85   176    1
   188    85   177    1
