@<TRIPOS>MOLECULE
IMPHY002384
 17 19 0 0 0
SMALL
GASTEIGER

@<TRIPOS>ATOM
      1 C           1.7278    2.4940    0.0000 C.3     1  UNL1        0.0035
      2 C           1.7278    1.4912    0.0000 C.3     1  UNL1        0.0002
      3 C           2.5934    2.9928    0.0000 C.3     1  UNL1        0.0436
      4 C           0.8656    3.0031    0.0000 C.3     1  UNL1        0.0001
      5 C           1.7329    3.4950    0.0000 C.3     1  UNL1        0.0001
      6 C           0.8656    0.9993    0.0000 C.3     1  UNL1        0.0000
      7 C           2.5934    0.9942    0.0000 C.3     1  UNL1        0.0041
      8 C           3.4556    2.4940    0.0000 C.3     1  UNL1        0.1692
      9 C           0.0000    2.4940    0.0000 C.3     1  UNL1        0.0000
     10 C           0.0000    1.4912    0.0000 C.3     1  UNL1        0.0000
     11 C           0.8656    0.0000    0.0000 C.3     1  UNL1        0.0000
     12 C           3.4556    1.4912    0.0000 C.3     1  UNL1        0.0507
     13 O           4.4086    2.8042    0.0000 O.3     1  UNL1       -0.4523
     14 C           4.4086    1.1827    0.0000 C.3     1  UNL1        0.1025
     15 C           4.9982    1.9935    0.0000 C.2     1  UNL1        0.3164
     16 C           4.7188    0.2314    0.0000 C.3     1  UNL1        0.0118
     17 O           5.9993    1.9935    0.0000 O.2     1  UNL1       -0.2501
@<TRIPOS>BOND
     1     1     2    1
     2     1     3    1
     3     1     4    1
     4     1     5    1
     5     2     6    1
     6     2     7    1
     7     4     9    1
     8     6    10    1
     9     6    11    1
    10     8     3    1
    11     8    12    1
    12     8    13    1
    13     9    10    1
    14    12     7    1
    15    12    14    1
    16    13    15    1
    17    14    15    1
    18    14    16    1
    19    15    17    2
