@<TRIPOS>MOLECULE
IMPHY005743
 57 60 0 0 0
SMALL
GASTEIGER

@<TRIPOS>ATOM
      1 O           4.8936   -0.5894    0.0000 O.3     1  UNL1       -0.4844
      2 O           2.3100    0.2154    0.0000 O.3     1  UNL1       -0.3855
      3 O           6.6898    2.2569    0.0000 O.2     1  UNL1       -0.4216
      4 O           8.4379   -0.7846    0.0000 O.3     1  UNL1       -0.5052
      5 O           7.5719   -2.2846    0.0000 O.2     1  UNL1       -0.2918
      6 O           7.5840    3.7846    0.0000 O.2     1  UNL1       -0.2452
      7 C           4.3100    0.2154    0.0000 C.3     1  UNL1        0.1324
      8 C           4.8936    1.0201    0.0000 C.3     1  UNL1        0.0192
      9 C           3.3100    0.2154    0.0000 C.3     1  UNL1        0.0974
     10 C           5.8398    0.7154    0.0000 C.ar    1  UNL1        0.0417
     11 C           5.8398   -0.2846    0.0000 C.ar    1  UNL1        0.1418
     12 C           6.7058    1.2154    0.0000 C.ar    1  UNL1        0.1499
     13 C           6.7058   -0.7846    0.0000 C.ar    1  UNL1        0.1014
     14 C           3.3100   -0.7846    0.0000 C.3     1  UNL1       -0.0328
     15 C           3.3100    1.2154    0.0000 C.3     1  UNL1       -0.0328
     16 C           7.5719    0.7154    0.0000 C.ar    1  UNL1        0.0679
     17 C           7.5719   -0.2846    0.0000 C.ar    1  UNL1        0.1421
     18 C           6.7058   -1.7846    0.0000 C.2     1  UNL1        0.1705
     19 C           8.4819    1.2222    0.0000 C.ar    1  UNL1        0.0031
     20 C           5.8398   -2.2846    0.0000 C.3     1  UNL1        0.0130
     21 C           5.8398   -3.2846    0.0000 C.3     1  UNL1       -0.0397
     22 C           8.4899    2.2638    0.0000 C.ar    1  UNL1        0.0314
     23 C           7.5878    2.7846    0.0000 C.ar    1  UNL1        0.3378
     24 C           9.3421    0.7122    0.0000 C.ar    1  UNL1       -0.0169
     25 C           4.9738   -3.7846    0.0000 C.3     1  UNL1       -0.0623
     26 C           6.7058   -3.7846    0.0000 C.3     1  UNL1       -0.0623
     27 C           9.3305   -0.2877    0.0000 C.ar    1  UNL1       -0.0540
     28 C          10.2138    1.2022    0.0000 C.ar    1  UNL1       -0.0540
     29 C          10.1907   -0.7977    0.0000 C.ar    1  UNL1       -0.0612
     30 C          11.0740    0.6922    0.0000 C.ar    1  UNL1       -0.0612
     31 C          11.0624   -0.3077    0.0000 C.ar    1  UNL1       -0.0617
     32 H           4.0283   -0.3369    0.0000 H       1  UNL1        0.0765
     33 H           5.1446    1.5870    0.0000 H       1  UNL1        0.0352
     34 H           4.3562    1.3293    0.0000 H       1  UNL1        0.0352
     35 H           2.6900   -0.7846    0.0000 H       1  UNL1        0.0258
     36 H           3.3100   -1.4046    0.0000 H       1  UNL1        0.0258
     37 H           3.9300   -0.7846    0.0000 H       1  UNL1        0.0258
     38 H           3.9300    1.2154    0.0000 H       1  UNL1        0.0258
     39 H           3.3100    1.8354    0.0000 H       1  UNL1        0.0258
     40 H           2.6900    1.2154    0.0000 H       1  UNL1        0.0258
     41 H           2.0000    0.7523    0.0000 H       1  UNL1        0.2103
     42 H           5.6278   -1.7020    0.0000 H       1  UNL1        0.0348
     43 H           5.2293   -2.3923    0.0000 H       1  UNL1        0.0348
     44 H           5.8398   -3.9046    0.0000 H       1  UNL1        0.0300
     45 H           9.0280    2.5718    0.0000 H       1  UNL1        0.0695
     46 H           8.4379   -1.4046    0.0000 H       1  UNL1        0.2922
     47 H           4.6638   -3.2477    0.0000 H       1  UNL1        0.0232
     48 H           6.3958   -4.3216    0.0000 H       1  UNL1        0.0232
     49 H           7.2428   -4.0946    0.0000 H       1  UNL1        0.0232
     50 H           7.0158   -3.2477    0.0000 H       1  UNL1        0.0232
     51 H           4.4369   -4.0946    0.0000 H       1  UNL1        0.0232
     52 H           5.2838   -4.3216    0.0000 H       1  UNL1        0.0232
     53 H           8.7900   -0.5915    0.0000 H       1  UNL1        0.0624
     54 H          10.2210    1.8222    0.0000 H       1  UNL1        0.0624
     55 H          10.1835   -1.4176    0.0000 H       1  UNL1        0.0618
     56 H          11.6145    0.9960    0.0000 H       1  UNL1        0.0618
     57 H          11.5958   -0.6239    0.0000 H       1  UNL1        0.0618
@<TRIPOS>BOND
     1     1     7    1
     2     1    11    1
     3     2     9    1
     4     2    41    1
     5     3    12   ar
     6     3    23   ar
     7     4    17    1
     8     4    46    1
     9     5    18    2
    10     6    23    2
    11     7     8    1
    12     7     9    1
    13     7    32    1
    14     8    10    1
    15     8    33    1
    16     8    34    1
    17     9    14    1
    18     9    15    1
    19    10    11   ar
    20    10    12   ar
    21    11    13   ar
    22    12    16   ar
    23    13    17   ar
    24    13    18    1
    25    14    35    1
    26    14    36    1
    27    14    37    1
    28    15    38    1
    29    15    39    1
    30    15    40    1
    31    16    17   ar
    32    16    19   ar
    33    18    20    1
    34    19    22   ar
    35    19    24    1
    36    20    21    1
    37    20    42    1
    38    20    43    1
    39    21    25    1
    40    21    26    1
    41    21    44    1
    42    22    23   ar
    43    22    45    1
    44    24    27   ar
    45    24    28   ar
    46    25    47    1
    47    25    51    1
    48    25    52    1
    49    26    48    1
    50    26    49    1
    51    26    50    1
    52    27    29   ar
    53    27    53    1
    54    28    30   ar
    55    28    54    1
    56    29    31   ar
    57    29    55    1
    58    30    31   ar
    59    30    56    1
    60    31    57    1
