@<TRIPOS>MOLECULE
IMPHY006948
 29 29 0 0 0
SMALL
GASTEIGER

@<TRIPOS>ATOM
      1 O           3.3660    2.1830    0.0000 O.3     1  UNL1       -0.3888
      2 C           2.8660    1.3170    0.0000 C.3     1  UNL1        0.0634
      3 C           2.8660   -0.6830    0.0000 C.3     1  UNL1       -0.0202
      4 C           2.0000    0.8170    0.0000 C.3     1  UNL1       -0.0237
      5 C           3.7320    0.8170    0.0000 C.3     1  UNL1       -0.0237
      6 C           2.0000   -0.1830    0.0000 C.3     1  UNL1       -0.0439
      7 C           3.7320   -0.1830    0.0000 C.3     1  UNL1       -0.0439
      8 C           2.3660    2.1830    0.0000 C.3     1  UNL1       -0.0361
      9 C           2.8660   -1.6830    0.0000 C.2     1  UNL1       -0.0766
     10 C           2.0000   -2.1830    0.0000 C.3     1  UNL1       -0.0438
     11 C           3.7320   -2.1830    0.0000 C.2     1  UNL1       -0.0994
     12 H           3.4030   -0.9930    0.0000 H       1  UNL1        0.0345
     13 H           1.7880    1.3996    0.0000 H       1  UNL1        0.0293
     14 H           1.3894    0.7093    0.0000 H       1  UNL1        0.0293
     15 H           4.3426    0.7093    0.0000 H       1  UNL1        0.0293
     16 H           3.9441    1.3996    0.0000 H       1  UNL1        0.0293
     17 H           1.3894   -0.0754    0.0000 H       1  UNL1        0.0272
     18 H           1.7880   -0.7656    0.0000 H       1  UNL1        0.0272
     19 H           3.9441   -0.7656    0.0000 H       1  UNL1        0.0272
     20 H           4.3426   -0.0754    0.0000 H       1  UNL1        0.0272
     21 H           2.9030    2.4930    0.0000 H       1  UNL1        0.0257
     22 H           2.0560    2.7200    0.0000 H       1  UNL1        0.0257
     23 H           1.8291    1.8730    0.0000 H       1  UNL1        0.0257
     24 H           3.9860    2.1830    0.0000 H       1  UNL1        0.2101
     25 H           1.6900   -1.6461    0.0000 H       1  UNL1        0.0274
     26 H           1.4631   -2.4930    0.0000 H       1  UNL1        0.0274
     27 H           2.3100   -2.7200    0.0000 H       1  UNL1        0.0274
     28 H           3.7320   -2.8030    0.0000 H       1  UNL1        0.0534
     29 H           4.2690   -1.8730    0.0000 H       1  UNL1        0.0534
@<TRIPOS>BOND
     1     1     2    1
     2     1    24    1
     3     2     4    1
     4     2     5    1
     5     2     8    1
     6     3     6    1
     7     3     7    1
     8     3     9    1
     9     3    12    1
    10     4     6    1
    11     4    13    1
    12     4    14    1
    13     5     7    1
    14     5    15    1
    15     5    16    1
    16     6    17    1
    17     6    18    1
    18     7    19    1
    19     7    20    1
    20     8    21    1
    21     8    22    1
    22     8    23    1
    23     9    10    1
    24     9    11    2
    25    10    25    1
    26    10    26    1
    27    10    27    1
    28    11    28    1
    29    11    29    1
