@<TRIPOS>MOLECULE
IMPHY007915
 76 79 0 0 0
SMALL
GASTEIGER

@<TRIPOS>ATOM
      1 O           2.5357   -3.6598    0.0000 O.3     1  UNL1       -0.3918
      2 C           5.2868   -2.1143    0.0000 C.3     1  UNL1       -0.0223
      3 C           6.1968   -1.6074    0.0000 C.3     1  UNL1       -0.0139
      4 C           7.9288   -0.6074    0.0000 C.3     1  UNL1       -0.0040
      5 C           7.9288   -1.6074    0.0000 C.3     1  UNL1       -0.0071
      6 C           5.2787   -3.1559    0.0000 C.3     1  UNL1       -0.0293
      7 C           7.0628   -2.1074    0.0000 C.2     1  UNL1       -0.0656
      8 C           6.1968   -0.6074    0.0000 C.3     1  UNL1       -0.0452
      9 C           7.0628   -0.1074    0.0000 C.3     1  UNL1       -0.0428
     10 C           4.3599   -1.5502    0.0000 C.3     1  UNL1       -0.0445
     11 C           6.1808   -3.6767    0.0000 C.3     1  UNL1       -0.0311
     12 C           4.3433   -3.7056    0.0000 C.3     1  UNL1       -0.0232
     13 C           8.8750   -0.3027    0.0000 C.2     1  UNL1       -0.0641
     14 C           8.8750   -1.9122    0.0000 C.3     1  UNL1       -0.0271
     15 C           7.0789   -3.1489    0.0000 C.2     1  UNL1       -0.0839
     16 C           5.2945   -1.1143    0.0000 C.3     1  UNL1       -0.0588
     17 C           3.4120   -2.0781    0.0000 C.3     1  UNL1       -0.0263
     18 C           3.4037   -3.1631    0.0000 C.3     1  UNL1        0.0556
     19 C           7.9288    0.3926    0.0000 C.3     1  UNL1       -0.0553
     20 C           9.4586   -1.1074    0.0000 C.2     1  UNL1       -0.0834
     21 C           9.1857    0.6478    0.0000 C.3     1  UNL1       -0.0222
     22 C          10.1642    0.8540    0.0000 C.3     1  UNL1       -0.0462
     23 C           8.5179    1.3921    0.0000 C.3     1  UNL1       -0.0587
     24 C          10.4749    1.8046    0.0000 C.3     1  UNL1       -0.0460
     25 C          11.4534    2.0108    0.0000 C.3     1  UNL1       -0.0206
     26 C          12.1212    1.2665    0.0000 C.3     1  UNL1       -0.0494
     27 C          11.7640    2.9613    0.0000 C.2     1  UNL1       -0.0766
     28 C          13.0997    1.4727    0.0000 C.3     1  UNL1       -0.0647
     29 C          12.7425    3.1675    0.0000 C.3     1  UNL1       -0.0438
     30 C          11.0962    3.7056    0.0000 C.2     1  UNL1       -0.0994
     31 H           6.9329   -1.1824    0.0000 H       1  UNL1        0.0351
     32 H           8.0188   -2.4527    0.0000 H       1  UNL1        0.0357
     33 H           5.2820   -4.0059    0.0000 H       1  UNL1        0.0310
     34 H           5.9847   -0.0248    0.0000 H       1  UNL1        0.0271
     35 H           5.5862   -0.7151    0.0000 H       1  UNL1        0.0271
     36 H           7.4613    0.3675    0.0000 H       1  UNL1        0.0274
     37 H           6.6643    0.3675    0.0000 H       1  UNL1        0.0274
     38 H           4.7681   -1.0835    0.0000 H       1  UNL1        0.0272
     39 H           3.9700   -1.0682    0.0000 H       1  UNL1        0.0272
     40 H           5.7835   -4.1527    0.0000 H       1  UNL1        0.0310
     41 H           6.5818   -4.1496    0.0000 H       1  UNL1        0.0310
     42 H           3.9460   -4.1816    0.0000 H       1  UNL1        0.0293
     43 H           4.7443   -4.1785    0.0000 H       1  UNL1        0.0293
     44 H           8.6240   -2.4791    0.0000 H       1  UNL1        0.0313
     45 H           9.4124   -2.2214    0.0000 H       1  UNL1        0.0313
     46 H           7.6193   -3.4527    0.0000 H       1  UNL1        0.0572
     47 H           5.9145   -1.1191    0.0000 H       1  UNL1        0.0235
     48 H           5.2993   -0.4943    0.0000 H       1  UNL1        0.0235
     49 H           4.6745   -1.1095    0.0000 H       1  UNL1        0.0235
     50 H           3.2075   -1.4929    0.0000 H       1  UNL1        0.0290
     51 H           2.8004   -2.1795    0.0000 H       1  UNL1        0.0290
     52 H           3.4025   -3.7831    0.0000 H       1  UNL1        0.0593
     53 H           8.5488    0.3926    0.0000 H       1  UNL1        0.0238
     54 H           7.9288    1.0126    0.0000 H       1  UNL1        0.0238
     55 H           7.3088    0.3926    0.0000 H       1  UNL1        0.0238
     56 H          10.0786   -1.1074    0.0000 H       1  UNL1        0.0572
     57 H           9.3783    1.2371    0.0000 H       1  UNL1        0.0343
     58 H          10.1848    0.2344    0.0000 H       1  UNL1        0.0271
     59 H          10.7780    0.7667    0.0000 H       1  UNL1        0.0271
     60 H           8.9793    1.8062    0.0000 H       1  UNL1        0.0235
     61 H           8.1038    1.8536    0.0000 H       1  UNL1        0.0235
     62 H           8.0564    0.9781    0.0000 H       1  UNL1        0.0235
     63 H           2.0000   -3.3477    0.0000 H       1  UNL1        0.2098
     64 H          10.4543    2.4242    0.0000 H       1  UNL1        0.0271
     65 H           9.8611    1.8919    0.0000 H       1  UNL1        0.0271
     66 H          11.8674    1.5493    0.0000 H       1  UNL1        0.0345
     67 H          11.5949    0.9388    0.0000 H       1  UNL1        0.0268
     68 H          12.3525    0.6912    0.0000 H       1  UNL1        0.0268
     69 H          13.2276    0.8660    0.0000 H       1  UNL1        0.0230
     70 H          13.7064    1.6006    0.0000 H       1  UNL1        0.0230
     71 H          12.9719    2.0794    0.0000 H       1  UNL1        0.0230
     72 H          12.8704    2.5608    0.0000 H       1  UNL1        0.0274
     73 H          13.3492    3.2954    0.0000 H       1  UNL1        0.0274
     74 H          12.6147    3.7742    0.0000 H       1  UNL1        0.0274
     75 H          11.2888    4.2949    0.0000 H       1  UNL1        0.0534
     76 H          10.4895    3.5778    0.0000 H       1  UNL1        0.0534
@<TRIPOS>BOND
     1    18     1    1
     2     1    63    1
     3     2     3    1
     4     2     6    1
     5     2    10    1
     6     2    16    1
     7     3     7    1
     8     3     8    1
     9     3    31    1
    10     4     5    1
    11     4     9    1
    12     4    13    1
    13     4    19    1
    14     5     7    1
    15     5    14    1
    16     5    32    1
    17     6    11    1
    18     6    12    1
    19     6    33    1
    20     7    15    2
    21     8     9    1
    22     8    34    1
    23     8    35    1
    24     9    36    1
    25     9    37    1
    26    10    17    1
    27    10    38    1
    28    10    39    1
    29    11    15    1
    30    11    40    1
    31    11    41    1
    32    12    18    1
    33    12    42    1
    34    12    43    1
    35    13    20    2
    36    13    21    1
    37    14    20    1
    38    14    44    1
    39    14    45    1
    40    15    46    1
    41    16    47    1
    42    16    48    1
    43    16    49    1
    44    17    18    1
    45    17    50    1
    46    17    51    1
    47    18    52    1
    48    19    53    1
    49    19    54    1
    50    19    55    1
    51    20    56    1
    52    21    22    1
    53    21    23    1
    54    21    57    1
    55    22    24    1
    56    22    58    1
    57    22    59    1
    58    23    60    1
    59    23    61    1
    60    23    62    1
    61    25    24    1
    62    24    64    1
    63    24    65    1
    64    25    26    1
    65    25    27    1
    66    25    66    1
    67    26    28    1
    68    26    67    1
    69    26    68    1
    70    27    29    1
    71    27    30    2
    72    28    69    1
    73    28    70    1
    74    28    71    1
    75    29    72    1
    76    29    73    1
    77    29    74    1
    78    30    75    1
    79    30    76    1
