@<TRIPOS>MOLECULE
IMPHY004254
 72 77 0 0 0
SMALL
GASTEIGER

@<TRIPOS>ATOM
      1 O           2.0000    2.7762    0.0000 O.3     1  UNL1       -0.3649
      2 O           2.8665    4.2762    0.0000 O.3     1  UNL1       -0.3846
      3 O           6.3846    0.2311    0.0000 O.3     1  UNL1       -0.3912
      4 O           6.3688    3.2731    0.0000 O.2     1  UNL1       -0.2920
      5 O           5.3950   -3.2506    0.0000 O.3     1  UNL1       -0.4575
      6 O           5.7391   -4.9481    0.0000 O.2     1  UNL1       -0.2453
      7 C           3.7326    1.7762    0.0000 C.3     1  UNL1       -0.0049
      8 C           3.7165    0.7347    0.0000 C.3     1  UNL1       -0.0275
      9 C           4.5986    2.2762    0.0000 C.3     1  UNL1       -0.0180
     10 C           4.6145    0.2069    0.0000 C.3     1  UNL1        0.0002
     11 C           2.8665    2.2762    0.0000 C.3     1  UNL1        0.0914
     12 C           2.8665    3.2762    0.0000 C.3     1  UNL1        0.1153
     13 C           4.5986    3.2762    0.0000 C.3     1  UNL1        0.0648
     14 C           3.7326    3.7762    0.0000 C.3     1  UNL1        0.1104
     15 C           4.3888   -0.8036    0.0000 C.3     1  UNL1       -0.0271
     16 C           5.5166    0.7277    0.0000 C.3     1  UNL1        0.0614
     17 C           5.5086    1.7693    0.0000 C.3     1  UNL1       -0.0222
     18 C           2.9435    0.0458    0.0000 C.3     1  UNL1       -0.0490
     19 C           3.3582   -0.9030    0.0000 C.3     1  UNL1       -0.0490
     20 C           5.4767   -0.2997    0.0000 C.3     1  UNL1       -0.0567
     21 C           3.7165    4.8177    0.0000 C.3     1  UNL1       -0.0019
     22 C           5.0509   -1.5531    0.0000 C.3     1  UNL1       -0.0029
     23 C           5.4646    2.7762    0.0000 C.3     1  UNL1       -0.0495
     24 C           5.5086    3.7830    0.0000 C.2     1  UNL1        0.1647
     25 C           4.6145    5.3454    0.0000 C.2     1  UNL1       -0.0779
     26 C           4.7329   -2.5012    0.0000 C.3     1  UNL1        0.1099
     27 C           5.5166    4.8246    0.0000 C.2     1  UNL1       -0.0224
     28 C           6.0310   -1.3544    0.0000 C.3     1  UNL1       -0.0588
     29 C           3.7529   -2.6998    0.0000 C.3     1  UNL1        0.0063
     30 C           3.4349   -3.6479    0.0000 C.2     1  UNL1       -0.0595
     31 C           5.0770   -4.1987    0.0000 C.2     1  UNL1        0.3351
     32 C           4.0970   -4.3974    0.0000 C.2     1  UNL1        0.0326
     33 C           2.4548   -3.8466    0.0000 C.3     1  UNL1       -0.0429
     34 C           3.7790   -5.3454    0.0000 C.3     1  UNL1       -0.0330
     35 H           2.9932    1.3569    0.0000 H       1  UNL1        0.0332
     36 H           2.9436    1.0884    0.0000 H       1  UNL1        0.0310
     37 H           5.3314    2.7069    0.0000 H       1  UNL1        0.0315
     38 H           2.5566    1.7392    0.0000 H       1  UNL1        0.0626
     39 H           2.5566    3.8132    0.0000 H       1  UNL1        0.0651
     40 H           4.0771   -1.5944    0.0000 H       1  UNL1        0.0311
     41 H           6.0518    1.0408    0.0000 H       1  UNL1        0.0599
     42 H           6.1202    1.6680    0.0000 H       1  UNL1        0.0293
     43 H           5.7131    2.3546    0.0000 H       1  UNL1        0.0293
     44 H           2.5819    0.5494    0.0000 H       1  UNL1        0.0268
     45 H           2.4046   -0.2609    0.0000 H       1  UNL1        0.0268
     46 H           2.7671   -1.0902    0.0000 H       1  UNL1        0.0268
     47 H           3.4822   -1.5105    0.0000 H       1  UNL1        0.0268
     48 H           5.1626   -0.8343    0.0000 H       1  UNL1        0.0236
     49 H           6.0112   -0.6139    0.0000 H       1  UNL1        0.0236
     50 H           5.7908    0.2348    0.0000 H       1  UNL1        0.0236
     51 H           3.4985    5.3981    0.0000 H       1  UNL1        0.0336
     52 H           3.1074    4.7022    0.0000 H       1  UNL1        0.0336
     53 H           5.2481   -0.9652    0.0000 H       1  UNL1        0.0337
     54 H           5.1546    2.2393    0.0000 H       1  UNL1        0.0240
     55 H           6.0016    2.4662    0.0000 H       1  UNL1        0.0240
     56 H           5.7746    3.3131    0.0000 H       1  UNL1        0.0240
     57 H           2.8665    4.8962    0.0000 H       1  UNL1        0.2103
     58 H           6.9203    0.5432    0.0000 H       1  UNL1        0.2098
     59 H           4.6122    5.9654    0.0000 H       1  UNL1        0.0574
     60 H           5.5660   -2.3323    0.0000 H       1  UNL1        0.0740
     61 H           6.0548    5.1326    0.0000 H       1  UNL1        0.0649
     62 H           6.1542   -1.9620    0.0000 H       1  UNL1        0.0234
     63 H           6.6386   -1.2312    0.0000 H       1  UNL1        0.0234
     64 H           5.9078   -0.7468    0.0000 H       1  UNL1        0.0234
     65 H           3.7371   -2.0800    0.0000 H       1  UNL1        0.0346
     66 H           3.1397   -2.6077    0.0000 H       1  UNL1        0.0346
     67 H           2.3316   -3.2390    0.0000 H       1  UNL1        0.0275
     68 H           1.8472   -3.9698    0.0000 H       1  UNL1        0.0275
     69 H           2.5780   -4.4542    0.0000 H       1  UNL1        0.0275
     70 H           3.1912   -5.1483    0.0000 H       1  UNL1        0.0280
     71 H           3.5818   -5.9333    0.0000 H       1  UNL1        0.0280
     72 H           4.3668   -5.5426    0.0000 H       1  UNL1        0.0280
@<TRIPOS>BOND
     1    11     1    1
     2    12     1    1
     3    14     2    1
     4     2    57    1
     5    16     3    1
     6     3    58    1
     7     4    24    2
     8     5    26    1
     9     5    31    1
    10     6    31    2
    11     7     8    1
    12     7     9    1
    13     7    11    1
    14     7    35    1
    15     8    10    1
    16     8    18    1
    17     8    36    1
    18     9    13    1
    19     9    17    1
    20     9    37    1
    21    10    15    1
    22    10    16    1
    23    10    20    1
    24    11    12    1
    25    11    38    1
    26    12    14    1
    27    12    39    1
    28    13    14    1
    29    13    23    1
    30    13    24    1
    31    14    21    1
    32    15    19    1
    33    15    22    1
    34    15    40    1
    35    16    17    1
    36    16    41    1
    37    17    42    1
    38    17    43    1
    39    18    19    1
    40    18    44    1
    41    18    45    1
    42    19    46    1
    43    19    47    1
    44    20    48    1
    45    20    49    1
    46    20    50    1
    47    21    25    1
    48    21    51    1
    49    21    52    1
    50    22    26    1
    51    22    28    1
    52    22    53    1
    53    23    54    1
    54    23    55    1
    55    23    56    1
    56    24    27    1
    57    25    27    2
    58    25    59    1
    59    26    29    1
    60    26    60    1
    61    27    61    1
    62    28    62    1
    63    28    63    1
    64    28    64    1
    65    29    30    1
    66    29    65    1
    67    29    66    1
    68    30    32    2
    69    30    33    1
    70    31    32    1
    71    32    34    1
    72    33    67    1
    73    33    68    1
    74    33    69    1
    75    34    70    1
    76    34    71    1
    77    34    72    1
