@<TRIPOS>MOLECULE
IMPHY012720
 41 42 0 0 0
SMALL
GASTEIGER

@<TRIPOS>ATOM
      1 O           5.1350    0.1550    0.0000 O.3     1  UNL1       -0.3313
      2 O           6.8671    0.1550    0.0000 O.3     1  UNL1       -0.4602
      3 O           5.1350   -2.8450    0.0000 O.3     1  UNL1       -0.3864
      4 O           3.4030   -1.8450    0.0000 O.3     1  UNL1       -0.3865
      5 O           6.8671   -1.8450    0.0000 O.3     1  UNL1       -0.3829
      6 O           2.5369   -0.3450    0.0000 O.3     1  UNL1       -0.3924
      7 O          11.1972    1.6550    0.0000 O.3     1  UNL1       -0.4775
      8 O          10.3312    0.1550    0.0000 O.2     1  UNL1       -0.2458
      9 C           5.1350   -1.8450    0.0000 C.3     1  UNL1        0.1152
     10 C           4.2690   -1.3450    0.0000 C.3     1  UNL1        0.1120
     11 C           6.0010   -1.3450    0.0000 C.3     1  UNL1        0.1454
     12 C           4.2690   -0.3450    0.0000 C.3     1  UNL1        0.1140
     13 C           6.0010   -0.3450    0.0000 C.3     1  UNL1        0.2308
     14 C           3.4030    0.1550    0.0000 C.3     1  UNL1        0.0731
     15 C           6.8671    1.1550    0.0000 C.ar    1  UNL1        0.1311
     16 C           7.7331    1.6550    0.0000 C.ar    1  UNL1        0.0170
     17 C           6.0010    1.6550    0.0000 C.ar    1  UNL1       -0.0192
     18 C           7.7331    2.6550    0.0000 C.ar    1  UNL1       -0.0511
     19 C           6.0010    2.6550    0.0000 C.ar    1  UNL1       -0.0583
     20 C           8.5991    1.1550    0.0000 C.2     1  UNL1       -0.0444
     21 C           6.8671    3.1550    0.0000 C.ar    1  UNL1       -0.0610
     22 C           9.4651    1.6550    0.0000 C.2     1  UNL1        0.0230
     23 C          10.3312    1.1550    0.0000 C.2     1  UNL1        0.3296
     24 H           4.5981   -2.1550    0.0000 H       1  UNL1        0.0648
     25 H           4.2690   -1.9650    0.0000 H       1  UNL1        0.0647
     26 H           6.0010   -1.9650    0.0000 H       1  UNL1        0.0683
     27 H           4.2690    0.2750    0.0000 H       1  UNL1        0.0647
     28 H           6.0010    0.2750    0.0000 H       1  UNL1        0.1084
     29 H           3.8015    0.6299    0.0000 H       1  UNL1        0.0584
     30 H           3.0044    0.6299    0.0000 H       1  UNL1        0.0584
     31 H           4.5981   -3.1550    0.0000 H       1  UNL1        0.2100
     32 H           3.4030   -2.4650    0.0000 H       1  UNL1        0.2100
     33 H           6.8671   -2.4650    0.0000 H       1  UNL1        0.2102
     34 H           2.0000   -0.0350    0.0000 H       1  UNL1        0.2095
     35 H           5.4641    1.3450    0.0000 H       1  UNL1        0.0654
     36 H           8.2700    2.9650    0.0000 H       1  UNL1        0.0625
     37 H           5.4641    2.9650    0.0000 H       1  UNL1        0.0619
     38 H           8.5991    0.5350    0.0000 H       1  UNL1        0.0627
     39 H           6.8671    3.7750    0.0000 H       1  UNL1        0.0618
     40 H           9.4651    2.2750    0.0000 H       1  UNL1        0.0689
     41 H          11.1972    2.2750    0.0000 H       1  UNL1        0.2954
@<TRIPOS>BOND
     1     1    12    1
     2     1    13    1
     3    13     2    1
     4     2    15    1
     5     9     3    1
     6     3    31    1
     7    10     4    1
     8     4    32    1
     9    11     5    1
    10     5    33    1
    11     6    14    1
    12     6    34    1
    13     7    23    1
    14     7    41    1
    15     8    23    2
    16     9    10    1
    17     9    11    1
    18     9    24    1
    19    10    12    1
    20    10    25    1
    21    11    13    1
    22    11    26    1
    23    12    14    1
    24    12    27    1
    25    13    28    1
    26    14    29    1
    27    14    30    1
    28    15    16   ar
    29    15    17   ar
    30    16    18   ar
    31    16    20    1
    32    17    19   ar
    33    17    35    1
    34    18    21   ar
    35    18    36    1
    36    19    21   ar
    37    19    37    1
    38    20    22    2
    39    20    38    1
    40    21    39    1
    41    22    23    1
    42    22    40    1
