@<TRIPOS>MOLECULE
IMPHY016614
 31 32 0 0 0
SMALL
GASTEIGER

@<TRIPOS>ATOM
      1 S           4.5981    1.0000    0.0000 S.3     1  UNL1       -0.0771
      2 S           3.7320   -0.5000    0.0000 S.3     1  UNL1       -0.0771
      3 S           3.7320    0.5000    0.0000 S.3     1  UNL1       -0.0236
      4 C           5.4641    2.5000    0.0000 C.ar    1  UNL1       -0.0367
      5 C           2.8660   -2.0000    0.0000 C.ar    1  UNL1       -0.0367
      6 C           4.5981    2.0000    0.0000 C.3     1  UNL1        0.0298
      7 C           2.8660   -1.0000    0.0000 C.3     1  UNL1        0.0298
      8 C           6.3301    2.0000    0.0000 C.ar    1  UNL1       -0.0578
      9 C           2.0000   -2.5000    0.0000 C.ar    1  UNL1       -0.0578
     10 C           5.4641    3.5000    0.0000 C.ar    1  UNL1       -0.0578
     11 C           3.7320   -2.5000    0.0000 C.ar    1  UNL1       -0.0578
     12 C           7.1962    2.5000    0.0000 C.ar    1  UNL1       -0.0615
     13 C           2.0000   -3.5000    0.0000 C.ar    1  UNL1       -0.0615
     14 C           6.3301    4.0000    0.0000 C.ar    1  UNL1       -0.0615
     15 C           3.7320   -3.5000    0.0000 C.ar    1  UNL1       -0.0615
     16 C           7.1962    3.5000    0.0000 C.ar    1  UNL1       -0.0617
     17 C           2.8660   -4.0000    0.0000 C.ar    1  UNL1       -0.0617
     18 H           4.3860    2.5826    0.0000 H       1  UNL1        0.0433
     19 H           3.9875    1.8923    0.0000 H       1  UNL1        0.0433
     20 H           2.6540   -0.4174    0.0000 H       1  UNL1        0.0433
     21 H           2.2554   -1.1077    0.0000 H       1  UNL1        0.0433
     22 H           6.3301    1.3800    0.0000 H       1  UNL1        0.0621
     23 H           1.4631   -2.1900    0.0000 H       1  UNL1        0.0621
     24 H           4.9272    3.8100    0.0000 H       1  UNL1        0.0621
     25 H           4.2690   -2.1900    0.0000 H       1  UNL1        0.0621
     26 H           7.7331    2.1900    0.0000 H       1  UNL1        0.0618
     27 H           1.4631   -3.8100    0.0000 H       1  UNL1        0.0618
     28 H           6.3301    4.6200    0.0000 H       1  UNL1        0.0618
     29 H           4.2690   -3.8100    0.0000 H       1  UNL1        0.0618
     30 H           7.7331    3.8100    0.0000 H       1  UNL1        0.0618
     31 H           2.8660   -4.6200    0.0000 H       1  UNL1        0.0618
@<TRIPOS>BOND
     1     1     3    1
     2     1     6    1
     3     2     3    1
     4     2     7    1
     5     4     6    1
     6     4     8   ar
     7     4    10   ar
     8     5     7    1
     9     5     9   ar
    10     5    11   ar
    11     6    18    1
    12     6    19    1
    13     7    20    1
    14     7    21    1
    15     8    12   ar
    16     8    22    1
    17     9    13   ar
    18     9    23    1
    19    10    14   ar
    20    10    24    1
    21    11    15   ar
    22    11    25    1
    23    12    16   ar
    24    12    26    1
    25    13    17   ar
    26    13    27    1
    27    14    16   ar
    28    14    28    1
    29    15    17   ar
    30    15    29    1
    31    16    30    1
    32    17    31    1
