@<TRIPOS>MOLECULE
IMPHY011491
 73 77 0 0 0
SMALL
GASTEIGER

@<TRIPOS>ATOM
      1 O          10.4586   -0.2600    0.0000 O.3     1  UNL1       -0.3915
      2 O           2.5357   -2.8124    0.0000 O.3     1  UNL1       -0.3915
      3 N          10.4749    2.6520    0.0000 N.2     1  UNL1       -0.2919
      4 C           7.9288    0.2400    0.0000 C.3     1  UNL1       -0.0231
      5 C           7.9288   -0.7600    0.0000 C.3     1  UNL1       -0.0296
      6 C           7.0628   -1.2600    0.0000 C.3     1  UNL1       -0.0306
      7 C           6.1968   -0.7600    0.0000 C.3     1  UNL1       -0.0285
      8 C           8.8750    0.5447    0.0000 C.3     1  UNL1       -0.0017
      9 C           7.0628    0.7400    0.0000 C.3     1  UNL1       -0.0467
     10 C           8.8750   -1.0648    0.0000 C.3     1  UNL1       -0.0229
     11 C           5.2868   -1.2669    0.0000 C.3     1  UNL1       -0.0078
     12 C           6.1968    0.2400    0.0000 C.3     1  UNL1       -0.0486
     13 C           9.4586   -0.2600    0.0000 C.3     1  UNL1        0.0594
     14 C           7.0789   -2.3015    0.0000 C.3     1  UNL1       -0.0311
     15 C           7.9288    1.2400    0.0000 C.3     1  UNL1       -0.0589
     16 C           9.1857    1.4952    0.0000 C.3     1  UNL1       -0.0001
     17 C           5.2787   -2.3085    0.0000 C.2     1  UNL1       -0.0648
     18 C           4.3599   -0.7028    0.0000 C.3     1  UNL1       -0.0413
     19 C           6.1808   -2.8293    0.0000 C.2     1  UNL1       -0.0839
     20 C           5.2945   -0.2669    0.0000 C.3     1  UNL1       -0.0556
     21 C           4.3433   -2.8582    0.0000 C.3     1  UNL1       -0.0051
     22 C           3.4120   -1.2307    0.0000 C.3     1  UNL1       -0.0258
     23 C           3.4037   -2.3157    0.0000 C.3     1  UNL1        0.0590
     24 C          10.1642    1.7014    0.0000 C.2     1  UNL1        0.0167
     25 C           8.5179    2.2395    0.0000 C.3     1  UNL1       -0.0569
     26 C          10.8321    0.9572    0.0000 C.3     1  UNL1       -0.0141
     27 C          11.8106    1.1634    0.0000 C.3     1  UNL1       -0.0437
     28 C          12.1212    2.1139    0.0000 C.3     1  UNL1       -0.0240
     29 C          11.4534    2.8582    0.0000 C.3     1  UNL1        0.0422
     30 C          13.0997    2.3201    0.0000 C.3     1  UNL1       -0.0607
     31 H           8.0188   -1.6052    0.0000 H       1  UNL1        0.0310
     32 H           7.8022   -1.6793    0.0000 H       1  UNL1        0.0310
     33 H           6.9329   -0.3350    0.0000 H       1  UNL1        0.0312
     34 H           9.7148    0.6766    0.0000 H       1  UNL1        0.0337
     35 H           7.4613    1.2149    0.0000 H       1  UNL1        0.0271
     36 H           6.6643    1.2149    0.0000 H       1  UNL1        0.0271
     37 H           8.6240   -1.6317    0.0000 H       1  UNL1        0.0293
     38 H           9.4124   -1.3740    0.0000 H       1  UNL1        0.0293
     39 H           5.9847    0.8226    0.0000 H       1  UNL1        0.0268
     40 H           5.5862    0.1323    0.0000 H       1  UNL1        0.0268
     41 H           9.7404   -0.8123    0.0000 H       1  UNL1        0.0596
     42 H           7.2969   -2.8819    0.0000 H       1  UNL1        0.0310
     43 H           7.6880   -2.1860    0.0000 H       1  UNL1        0.0310
     44 H           8.5488    1.2400    0.0000 H       1  UNL1        0.0235
     45 H           7.9288    1.8600    0.0000 H       1  UNL1        0.0235
     46 H           7.3088    1.2400    0.0000 H       1  UNL1        0.0235
     47 H           9.3783    2.0846    0.0000 H       1  UNL1        0.0361
     48 H           4.7681   -0.2361    0.0000 H       1  UNL1        0.0274
     49 H           3.9700   -0.2207    0.0000 H       1  UNL1        0.0274
     50 H           6.1832   -3.4493    0.0000 H       1  UNL1        0.0572
     51 H           5.9145   -0.2717    0.0000 H       1  UNL1        0.0238
     52 H           5.2993    0.3531    0.0000 H       1  UNL1        0.0238
     53 H           4.6745   -0.2621    0.0000 H       1  UNL1        0.0238
     54 H           3.9460   -3.3342    0.0000 H       1  UNL1        0.0335
     55 H           4.7443   -3.3311    0.0000 H       1  UNL1        0.0335
     56 H           3.2075   -0.6454    0.0000 H       1  UNL1        0.0290
     57 H           2.8004   -1.3321    0.0000 H       1  UNL1        0.0290
     58 H           3.4025   -2.9357    0.0000 H       1  UNL1        0.0596
     59 H          10.7687   -0.7970    0.0000 H       1  UNL1        0.2098
     60 H           8.9793    2.6536    0.0000 H       1  UNL1        0.0236
     61 H           8.1038    2.7010    0.0000 H       1  UNL1        0.0236
     62 H           8.0564    1.8255    0.0000 H       1  UNL1        0.0236
     63 H          10.3057    0.6295    0.0000 H       1  UNL1        0.0325
     64 H          11.0633    0.3819    0.0000 H       1  UNL1        0.0325
     65 H          11.8311    0.5437    0.0000 H       1  UNL1        0.0272
     66 H          12.4244    1.0760    0.0000 H       1  UNL1        0.0272
     67 H           2.0000   -2.5003    0.0000 H       1  UNL1        0.2098
     68 H          12.5353    1.6524    0.0000 H       1  UNL1        0.0316
     69 H          11.9797    3.1858    0.0000 H       1  UNL1        0.0511
     70 H          11.2221    3.4334    0.0000 H       1  UNL1        0.0511
     71 H          13.2276    1.7134    0.0000 H       1  UNL1        0.0233
     72 H          13.7064    2.4480    0.0000 H       1  UNL1        0.0233
     73 H          12.9719    2.9268    0.0000 H       1  UNL1        0.0233
@<TRIPOS>BOND
     1    13     1    1
     2     1    59    1
     3    23     2    1
     4     2    67    1
     5     3    24    2
     6     3    29    1
     7     4     5    1
     8     4     8    1
     9     4     9    1
    10     4    15    1
    11     5     6    1
    12     5    10    1
    13     5    31    1
    14     6     7    1
    15     6    14    1
    16     6    32    1
    17     7    11    1
    18     7    12    1
    19     7    33    1
    20     8    13    1
    21     8    16    1
    22     8    34    1
    23     9    12    1
    24     9    35    1
    25     9    36    1
    26    10    13    1
    27    10    37    1
    28    10    38    1
    29    11    17    1
    30    11    18    1
    31    11    20    1
    32    12    39    1
    33    12    40    1
    34    13    41    1
    35    14    19    1
    36    14    42    1
    37    14    43    1
    38    15    44    1
    39    15    45    1
    40    15    46    1
    41    16    24    1
    42    16    25    1
    43    16    47    1
    44    17    19    2
    45    17    21    1
    46    18    22    1
    47    18    48    1
    48    18    49    1
    49    19    50    1
    50    20    51    1
    51    20    52    1
    52    20    53    1
    53    21    23    1
    54    21    54    1
    55    21    55    1
    56    22    23    1
    57    22    56    1
    58    22    57    1
    59    23    58    1
    60    24    26    1
    61    25    60    1
    62    25    61    1
    63    25    62    1
    64    26    27    1
    65    26    63    1
    66    26    64    1
    67    27    28    1
    68    27    65    1
    69    27    66    1
    70    28    29    1
    71    28    30    1
    72    28    68    1
    73    29    69    1
    74    29    70    1
    75    30    71    1
    76    30    72    1
    77    30    73    1
