@<TRIPOS>MOLECULE
IMPHY017391
 28 28 0 0 0
SMALL
GASTEIGER

@<TRIPOS>ATOM
      1 BR          5.4641   -3.0000    0.0000 Br      1  UNL1       -0.0918
      2 O           2.0000    1.0000    0.0000 O.2     1  UNL1       -0.2756
      3 N           3.7320    1.0000    0.0000 N.am    1  UNL1       -0.3015
      4 C           4.5981    1.5000    0.0000 C.3     1  UNL1        0.0147
      5 C           4.5981    2.5000    0.0000 C.3     1  UNL1       -0.0367
      6 C           3.7320    3.0000    0.0000 C.3     1  UNL1       -0.0434
      7 C           3.7320    0.0000    0.0000 C.3     1  UNL1        0.0147
      8 C           2.8660    2.5000    0.0000 C.3     1  UNL1        0.0242
      9 C           2.8660    1.5000    0.0000 C.2     1  UNL1        0.2156
     10 C           4.5981   -0.5000    0.0000 C.3     1  UNL1       -0.0364
     11 C           4.5981   -1.5000    0.0000 C.3     1  UNL1       -0.0420
     12 C           5.4641   -2.0000    0.0000 C.3     1  UNL1        0.0034
     13 H           4.8101    0.9174    0.0000 H       1  UNL1        0.0464
     14 H           5.2087    1.6077    0.0000 H       1  UNL1        0.0464
     15 H           5.2087    2.3923    0.0000 H       1  UNL1        0.0280
     16 H           4.8101    3.0826    0.0000 H       1  UNL1        0.0280
     17 H           4.1306    3.4750    0.0000 H       1  UNL1        0.0270
     18 H           3.3335    3.4750    0.0000 H       1  UNL1        0.0270
     19 H           3.1215    0.1077    0.0000 H       1  UNL1        0.0464
     20 H           3.5200   -0.5826    0.0000 H       1  UNL1        0.0464
     21 H           2.6540    3.0826    0.0000 H       1  UNL1        0.0358
     22 H           2.2554    2.3923    0.0000 H       1  UNL1        0.0358
     23 H           5.2087   -0.6077    0.0000 H       1  UNL1        0.0281
     24 H           4.8101    0.0826    0.0000 H       1  UNL1        0.0281
     25 H           3.9875   -1.3923    0.0000 H       1  UNL1        0.0274
     26 H           4.3860   -2.0826    0.0000 H       1  UNL1        0.0274
     27 H           6.0747   -2.1077    0.0000 H       1  UNL1        0.0382
     28 H           5.6762   -1.4174    0.0000 H       1  UNL1        0.0382
@<TRIPOS>BOND
     1     1    12    1
     2     2     9    2
     3     3     4    1
     4     3     7    1
     5     3     9   am
     6     4     5    1
     7     4    13    1
     8     4    14    1
     9     5     6    1
    10     5    15    1
    11     5    16    1
    12     6     8    1
    13     6    17    1
    14     6    18    1
    15     7    10    1
    16     7    19    1
    17     7    20    1
    18     8     9    1
    19     8    21    1
    20     8    22    1
    21    10    11    1
    22    10    23    1
    23    10    24    1
    24    11    12    1
    25    11    25    1
    26    11    26    1
    27    12    27    1
    28    12    28    1
