@<TRIPOS>MOLECULE
IMPHY015623
 54 54 0 0 0
SMALL
GASTEIGER

@<TRIPOS>ATOM
      1 C           4.5981   -1.2500    0.0000 C.3     1  UNL1       -0.0402
      2 C           5.4641    0.2500    0.0000 C.3     1  UNL1       -0.0199
      3 C           4.5981   -0.2500    0.0000 C.3     1  UNL1       -0.0437
      4 C           5.4641   -1.7500    0.0000 C.3     1  UNL1       -0.0502
      5 C           6.3301   -0.2500    0.0000 C.3     1  UNL1       -0.0465
      6 C           6.3301   -1.2500    0.0000 C.3     1  UNL1       -0.0523
      7 C           3.7320   -1.7500    0.0000 C.3     1  UNL1       -0.0467
      8 C           5.4641    1.2500    0.0000 C.2     1  UNL1       -0.0732
      9 C           3.7320   -2.7500    0.0000 C.3     1  UNL1       -0.0343
     10 C           6.3301    1.7500    0.0000 C.3     1  UNL1       -0.0283
     11 C           4.5981    1.7500    0.0000 C.2     1  UNL1       -0.0992
     12 C           6.3301    2.7500    0.0000 C.3     1  UNL1       -0.0308
     13 C           2.8660   -3.2500    0.0000 C.2     1  UNL1       -0.0853
     14 C           2.8660   -4.2500    0.0000 C.2     1  UNL1       -0.0796
     15 C           7.1962    3.2500    0.0000 C.2     1  UNL1       -0.0850
     16 C           7.1962    4.2500    0.0000 C.2     1  UNL1       -0.0796
     17 C           2.0000   -4.7500    0.0000 C.3     1  UNL1       -0.0440
     18 C           3.7320   -4.7500    0.0000 C.3     1  UNL1       -0.0440
     19 C           8.0622    4.7500    0.0000 C.3     1  UNL1       -0.0440
     20 C           6.3301    4.7500    0.0000 C.3     1  UNL1       -0.0440
     21 H           4.5981   -1.8700    0.0000 H       1  UNL1        0.0301
     22 H           6.0010    0.5600    0.0000 H       1  UNL1        0.0346
     23 H           4.3860    0.3326    0.0000 H       1  UNL1        0.0274
     24 H           3.9875   -0.3577    0.0000 H       1  UNL1        0.0274
     25 H           5.0656   -2.2250    0.0000 H       1  UNL1        0.0268
     26 H           5.8626   -2.2250    0.0000 H       1  UNL1        0.0268
     27 H           6.9407   -0.3577    0.0000 H       1  UNL1        0.0271
     28 H           6.5422    0.3326    0.0000 H       1  UNL1        0.0271
     29 H           6.5422   -1.8326    0.0000 H       1  UNL1        0.0266
     30 H           6.9407   -1.1423    0.0000 H       1  UNL1        0.0266
     31 H           3.5200   -1.1674    0.0000 H       1  UNL1        0.0271
     32 H           3.1215   -1.8577    0.0000 H       1  UNL1        0.0271
     33 H           3.9441   -3.3326    0.0000 H       1  UNL1        0.0307
     34 H           4.3426   -2.6423    0.0000 H       1  UNL1        0.0307
     35 H           6.5422    1.1674    0.0000 H       1  UNL1        0.0313
     36 H           6.9407    1.8577    0.0000 H       1  UNL1        0.0313
     37 H           4.5981    2.3700    0.0000 H       1  UNL1        0.0534
     38 H           4.0611    1.4400    0.0000 H       1  UNL1        0.0534
     39 H           6.1181    3.3326    0.0000 H       1  UNL1        0.0310
     40 H           5.7196    2.6423    0.0000 H       1  UNL1        0.0310
     41 H           2.3291   -2.9400    0.0000 H       1  UNL1        0.0571
     42 H           7.7331    2.9400    0.0000 H       1  UNL1        0.0572
     43 H           1.6900   -4.2131    0.0000 H       1  UNL1        0.0274
     44 H           1.4631   -5.0600    0.0000 H       1  UNL1        0.0274
     45 H           2.3100   -5.2869    0.0000 H       1  UNL1        0.0274
     46 H           3.4220   -5.2869    0.0000 H       1  UNL1        0.0274
     47 H           4.2690   -5.0600    0.0000 H       1  UNL1        0.0274
     48 H           4.0420   -4.2131    0.0000 H       1  UNL1        0.0274
     49 H           8.3722    4.2131    0.0000 H       1  UNL1        0.0274
     50 H           8.5991    5.0600    0.0000 H       1  UNL1        0.0274
     51 H           7.7522    5.2869    0.0000 H       1  UNL1        0.0274
     52 H           6.6401    5.2869    0.0000 H       1  UNL1        0.0274
     53 H           5.7932    5.0600    0.0000 H       1  UNL1        0.0274
     54 H           6.0201    4.2131    0.0000 H       1  UNL1        0.0274
@<TRIPOS>BOND
     1     1     3    1
     2     1     4    1
     3     1     7    1
     4     1    21    1
     5     2     3    1
     6     2     5    1
     7     2     8    1
     8     2    22    1
     9     3    23    1
    10     3    24    1
    11     4     6    1
    12     4    25    1
    13     4    26    1
    14     5     6    1
    15     5    27    1
    16     5    28    1
    17     6    29    1
    18     6    30    1
    19     7     9    1
    20     7    31    1
    21     7    32    1
    22     8    10    1
    23     8    11    2
    24     9    13    1
    25     9    33    1
    26     9    34    1
    27    10    12    1
    28    10    35    1
    29    10    36    1
    30    11    37    1
    31    11    38    1
    32    12    15    1
    33    12    39    1
    34    12    40    1
    35    13    14    2
    36    13    41    1
    37    14    17    1
    38    14    18    1
    39    15    16    2
    40    15    42    1
    41    16    19    1
    42    16    20    1
    43    17    43    1
    44    17    44    1
    45    17    45    1
    46    18    46    1
    47    18    47    1
    48    18    48    1
    49    19    49    1
    50    19    50    1
    51    19    51    1
    52    20    52    1
    53    20    53    1
    54    20    54    1
