@<TRIPOS>MOLECULE
IMPHY016010
 30 31 0 0 0
SMALL
GASTEIGER

@<TRIPOS>ATOM
      1 O           7.8392   -1.2755    0.0000 O.3     1  UNL1       -0.3360
      2 O           7.8392   -0.0999    0.0000 O.2     1  UNL1       -0.4568
      3 C           8.6482   -0.6877    0.0000 C.3     1  UNL1        0.2328
      4 C           9.4572   -1.2755    0.0000 C.3     1  UNL1        0.0191
      5 C           9.1482   -2.2266    0.0000 C.3     1  UNL1       -0.0230
      6 C           8.1482   -2.2266    0.0000 C.3     1  UNL1        0.0525
      7 C           9.4572   -0.0999    0.0000 C.2     1  UNL1       -0.0098
      8 C           9.1482    0.8511    0.0000 C.2     1  UNL1       -0.0170
      9 C           8.1482    0.8511    0.0000 C.2     1  UNL1        0.1326
     10 C           7.5604    1.6602    0.0000 C.2     1  UNL1        0.0312
     11 C           6.5659    1.5556    0.0000 C.1     1  UNL1       -0.0567
     12 C           5.5714    1.4511    0.0000 C.1     1  UNL1       -0.0100
     13 C           2.5878    1.1375    0.0000 C.3     1  UNL1        0.0072
     14 C           2.0000    1.9465    0.0000 C.3     1  UNL1       -0.0543
     15 C           4.5768    1.3466    0.0000 C.1     1  UNL1       -0.0145
     16 C           3.5823    1.2420    0.0000 C.1     1  UNL1       -0.0887
     17 H          10.0236   -1.5277    0.0000 H       1  UNL1        0.0333
     18 H           9.7672   -0.7386    0.0000 H       1  UNL1        0.0333
     19 H           9.0834   -2.8432    0.0000 H       1  UNL1        0.0289
     20 H           9.7546   -2.3554    0.0000 H       1  UNL1        0.0289
     21 H           7.5417   -2.3554    0.0000 H       1  UNL1        0.0561
     22 H           8.2130   -2.8432    0.0000 H       1  UNL1        0.0561
     23 H          10.0469   -0.2915    0.0000 H       1  UNL1        0.0638
     24 H           9.5126    1.3527    0.0000 H       1  UNL1        0.0653
     25 H           7.8126    2.2266    0.0000 H       1  UNL1        0.0749
     26 H           2.0305    0.8657    0.0000 H       1  UNL1        0.0395
     27 H           2.7587    0.5415    0.0000 H       1  UNL1        0.0395
     28 H           2.5016    2.3110    0.0000 H       1  UNL1        0.0239
     29 H           1.6356    2.4481    0.0000 H       1  UNL1        0.0239
     30 H           1.4984    1.5821    0.0000 H       1  UNL1        0.0239
@<TRIPOS>BOND
     1     1     3    1
     2     1     6    1
     3     2     3    1
     4     2     9    1
     5     3     4    1
     6     3     7    1
     7     4     5    1
     8     4    17    1
     9     4    18    1
    10     5     6    1
    11     5    19    1
    12     5    20    1
    13     6    21    1
    14     6    22    1
    15     7     8    2
    16     7    23    1
    17     8     9    1
    18     8    24    1
    19     9    10    2
    20    10    11    1
    21    10    25    1
    22    11    12    3
    23    12    15    1
    24    13    14    1
    25    13    16    1
    26    13    26    1
    27    13    27    1
    28    14    28    1
    29    14    29    1
    30    14    30    1
    31    15    16    3
