@<TRIPOS>MOLECULE
IMPHY005020
 68 71 0 0 0
SMALL
GASTEIGER

@<TRIPOS>ATOM
      1 O           7.1962   -2.2924    0.0000 O.3     1  UNL1       -0.4836
      2 O           5.4641   -1.2924    0.0000 O.3     1  UNL1       -0.3834
      3 O           5.4641   -4.2924    0.0000 O.3     1  UNL1       -0.3913
      4 O           2.0000   -2.2924    0.0000 O.3     1  UNL1       -0.4914
      5 O           2.0000   -4.2924    0.0000 O.3     1  UNL1       -0.5033
      6 O          13.9866   -0.9185    0.0000 O.2     1  UNL1       -0.2708
      7 O          15.8506    4.7846    0.0000 O.3     1  UNL1       -0.5068
      8 N          10.7404   -4.0972    0.0000 N.ar    1  UNL1       -0.3604
      9 N          12.3403   -0.3805    0.0000 N.am    1  UNL1       -0.3115
     10 C           6.3301   -2.7924    0.0000 C.3     1  UNL1        0.1528
     11 C           9.7942   -2.7924    0.0000 C.ar    1  UNL1        0.0063
     12 C          10.7404   -2.4877    0.0000 C.ar    1  UNL1       -0.0208
     13 C           5.4641   -2.2924    0.0000 C.3     1  UNL1        0.1192
     14 C           9.7942   -3.7924    0.0000 C.ar    1  UNL1        0.0470
     15 C          11.0511   -1.5372    0.0000 C.3     1  UNL1       -0.0101
     16 C           8.0622   -2.7924    0.0000 C.ar    1  UNL1        0.1219
     17 C           8.9282   -2.2924    0.0000 C.ar    1  UNL1       -0.0105
     18 C          11.3241   -3.2924    0.0000 C.ar    1  UNL1        0.0060
     19 C           4.5981   -2.7924    0.0000 C.ar    1  UNL1       -0.0119
     20 C           6.3301   -3.7924    0.0000 C.3     1  UNL1        0.0839
     21 C           8.9282   -4.2924    0.0000 C.ar    1  UNL1       -0.0343
     22 C          12.0296   -1.3310    0.0000 C.3     1  UNL1        0.0159
     23 C           8.0622   -3.7924    0.0000 C.ar    1  UNL1       -0.0179
     24 C           3.7320   -2.2924    0.0000 C.ar    1  UNL1       -0.0106
     25 C           4.5981   -3.7924    0.0000 C.ar    1  UNL1       -0.0523
     26 C           2.8660   -2.7924    0.0000 C.ar    1  UNL1        0.1616
     27 C           3.7320   -4.2924    0.0000 C.ar    1  UNL1       -0.0162
     28 C           2.8660   -3.7924    0.0000 C.ar    1  UNL1        0.1585
     29 C          13.3188   -0.1742    0.0000 C.2     1  UNL1        0.2369
     30 C          13.6294    0.7763    0.0000 C.2     1  UNL1        0.0007
     31 C           2.0000   -1.2924    0.0000 C.3     1  UNL1        0.0790
     32 C          14.6080    0.9825    0.0000 C.2     1  UNL1       -0.0497
     33 C          14.9186    1.9330    0.0000 C.ar    1  UNL1       -0.0247
     34 C          15.8971    2.1392    0.0000 C.ar    1  UNL1       -0.0511
     35 C          14.2508    2.6773    0.0000 C.ar    1  UNL1       -0.0511
     36 C          16.2078    3.0898    0.0000 C.ar    1  UNL1       -0.0196
     37 C          14.5614    3.6278    0.0000 C.ar    1  UNL1       -0.0196
     38 C          15.5399    3.8341    0.0000 C.ar    1  UNL1        0.1169
     39 H           6.8671   -3.1024    0.0000 H       1  UNL1        0.0786
     40 H           6.0010   -1.9824    0.0000 H       1  UNL1        0.0682
     41 H          11.0305   -0.9175    0.0000 H       1  UNL1        0.0329
     42 H          10.4373   -1.4498    0.0000 H       1  UNL1        0.0329
     43 H           8.9282   -1.6724    0.0000 H       1  UNL1        0.0661
     44 H          11.9441   -3.2924    0.0000 H       1  UNL1        0.0810
     45 H          10.9331   -4.6865    0.0000 H       1  UNL1        0.1653
     46 H           6.5422   -4.3750    0.0000 H       1  UNL1        0.0595
     47 H           6.9407   -3.6848    0.0000 H       1  UNL1        0.0595
     48 H           8.9282   -4.9124    0.0000 H       1  UNL1        0.0639
     49 H          12.0502   -1.9506    0.0000 H       1  UNL1        0.0465
     50 H          12.6434   -1.4183    0.0000 H       1  UNL1        0.0465
     51 H           7.5252   -4.1024    0.0000 H       1  UNL1        0.0655
     52 H           3.7320   -1.6724    0.0000 H       1  UNL1        0.0659
     53 H           5.1350   -4.1024    0.0000 H       1  UNL1        0.0622
     54 H           4.9272   -0.9824    0.0000 H       1  UNL1        0.2104
     55 H          11.9262    0.0810    0.0000 H       1  UNL1        0.1490
     56 H           3.7320   -4.9124    0.0000 H       1  UNL1        0.0655
     57 H           5.4641   -4.9124    0.0000 H       1  UNL1        0.2096
     58 H          13.2154    1.2377    0.0000 H       1  UNL1        0.0669
     59 H           2.0000   -4.9124    0.0000 H       1  UNL1        0.2923
     60 H           2.6200   -1.2924    0.0000 H       1  UNL1        0.0660
     61 H           2.0000   -0.6724    0.0000 H       1  UNL1        0.0660
     62 H           1.3800   -1.2924    0.0000 H       1  UNL1        0.0660
     63 H          15.0220    0.5210    0.0000 H       1  UNL1        0.0625
     64 H          16.3112    1.6778    0.0000 H       1  UNL1        0.0625
     65 H          13.6441    2.5495    0.0000 H       1  UNL1        0.0625
     66 H          16.8145    3.2176    0.0000 H       1  UNL1        0.0654
     67 H          14.1474    4.0893    0.0000 H       1  UNL1        0.0654
     68 H          16.4573    4.9124    0.0000 H       1  UNL1        0.2921
@<TRIPOS>BOND
     1    10     1    1
     2     1    16    1
     3    13     2    1
     4     2    54    1
     5     3    20    1
     6     3    57    1
     7     4    26    1
     8     4    31    1
     9     5    28    1
    10     5    59    1
    11     6    29    2
    12     7    38    1
    13     7    68    1
    14     8    14   ar
    15     8    18   ar
    16     8    45    1
    17     9    22    1
    18     9    29   am
    19     9    55    1
    20    10    13    1
    21    10    20    1
    22    10    39    1
    23    11    12   ar
    24    11    14   ar
    25    11    17   ar
    26    12    15    1
    27    12    18   ar
    28    13    19    1
    29    13    40    1
    30    14    21   ar
    31    15    22    1
    32    15    41    1
    33    15    42    1
    34    16    17   ar
    35    16    23   ar
    36    17    43    1
    37    18    44    1
    38    19    24   ar
    39    19    25   ar
    40    20    46    1
    41    20    47    1
    42    21    23   ar
    43    21    48    1
    44    22    49    1
    45    22    50    1
    46    23    51    1
    47    24    26   ar
    48    24    52    1
    49    25    27   ar
    50    25    53    1
    51    26    28   ar
    52    27    28   ar
    53    27    56    1
    54    29    30    1
    55    30    32    2
    56    30    58    1
    57    31    60    1
    58    31    61    1
    59    31    62    1
    60    32    33    1
    61    32    63    1
    62    33    34   ar
    63    33    35   ar
    64    34    36   ar
    65    34    64    1
    66    35    37   ar
    67    35    65    1
    68    36    38   ar
    69    36    66    1
    70    37    38   ar
    71    37    67    1
