@<TRIPOS>MOLECULE
IMPHY017498
 65 64 0 0 0
SMALL
GASTEIGER

@<TRIPOS>ATOM
      1 O          15.8564    0.7500    0.0000 O.3     1  UNL1       -0.4646
      2 O          16.7224   -0.7500    0.0000 O.2     1  UNL1       -0.2508
      3 C           8.9282    0.7500    0.0000 C.3     1  UNL1       -0.0531
      4 C           8.0622    0.2500    0.0000 C.3     1  UNL1       -0.0531
      5 C           9.7942    0.2500    0.0000 C.3     1  UNL1       -0.0531
      6 C           7.1962    0.7500    0.0000 C.3     1  UNL1       -0.0531
      7 C          10.6603    0.7500    0.0000 C.3     1  UNL1       -0.0531
      8 C           6.3301    0.2500    0.0000 C.3     1  UNL1       -0.0531
      9 C          11.5263    0.2500    0.0000 C.3     1  UNL1       -0.0531
     10 C           5.4641    0.7500    0.0000 C.3     1  UNL1       -0.0531
     11 C          12.3923    0.7500    0.0000 C.3     1  UNL1       -0.0530
     12 C           4.5981    0.2500    0.0000 C.3     1  UNL1       -0.0531
     13 C          13.2583    0.2500    0.0000 C.3     1  UNL1       -0.0500
     14 C           3.7320    0.7500    0.0000 C.3     1  UNL1       -0.0533
     15 C          14.1244    0.7500    0.0000 C.3     1  UNL1       -0.0185
     16 C           2.8660    0.2500    0.0000 C.3     1  UNL1       -0.0559
     17 C          14.9904    0.2500    0.0000 C.3     1  UNL1        0.0925
     18 C           2.0000    0.7500    0.0000 C.3     1  UNL1       -0.0653
     19 C          18.4545    0.2500    0.0000 C.3     1  UNL1       -0.0367
     20 C          17.5885    0.7500    0.0000 C.3     1  UNL1        0.0473
     21 C          16.7224    0.2500    0.0000 C.2     1  UNL1        0.3073
     22 C          19.3205    0.7500    0.0000 C.3     1  UNL1       -0.0622
     23 C          18.4545   -0.7500    0.0000 C.3     1  UNL1       -0.0622
     24 H           9.3267    1.2250    0.0000 H       1  UNL1        0.0265
     25 H           8.5297    1.2250    0.0000 H       1  UNL1        0.0265
     26 H           7.6636   -0.2249    0.0000 H       1  UNL1        0.0265
     27 H           8.4607   -0.2249    0.0000 H       1  UNL1        0.0265
     28 H           9.3957   -0.2249    0.0000 H       1  UNL1        0.0265
     29 H          10.1928   -0.2249    0.0000 H       1  UNL1        0.0265
     30 H           7.5947    1.2250    0.0000 H       1  UNL1        0.0265
     31 H           6.7976    1.2250    0.0000 H       1  UNL1        0.0265
     32 H          11.0588    1.2250    0.0000 H       1  UNL1        0.0265
     33 H          10.2617    1.2250    0.0000 H       1  UNL1        0.0265
     34 H           5.9316   -0.2249    0.0000 H       1  UNL1        0.0265
     35 H           6.7287   -0.2249    0.0000 H       1  UNL1        0.0265
     36 H          11.1278   -0.2249    0.0000 H       1  UNL1        0.0265
     37 H          11.9248   -0.2249    0.0000 H       1  UNL1        0.0265
     38 H           5.8626    1.2250    0.0000 H       1  UNL1        0.0265
     39 H           5.0656    1.2250    0.0000 H       1  UNL1        0.0265
     40 H          12.7908    1.2250    0.0000 H       1  UNL1        0.0265
     41 H          11.9938    1.2250    0.0000 H       1  UNL1        0.0265
     42 H           4.1996   -0.2249    0.0000 H       1  UNL1        0.0265
     43 H           4.9966   -0.2249    0.0000 H       1  UNL1        0.0265
     44 H          12.8598   -0.2249    0.0000 H       1  UNL1        0.0266
     45 H          13.6569   -0.2249    0.0000 H       1  UNL1        0.0266
     46 H           4.1306    1.2250    0.0000 H       1  UNL1        0.0265
     47 H           3.3335    1.2250    0.0000 H       1  UNL1        0.0265
     48 H          14.5229    1.2250    0.0000 H       1  UNL1        0.0298
     49 H          13.7258    1.2250    0.0000 H       1  UNL1        0.0298
     50 H           2.4675   -0.2249    0.0000 H       1  UNL1        0.0263
     51 H           3.2646   -0.2249    0.0000 H       1  UNL1        0.0263
     52 H          14.5919   -0.2249    0.0000 H       1  UNL1        0.0697
     53 H          15.3889   -0.2249    0.0000 H       1  UNL1        0.0697
     54 H           2.3100    1.2869    0.0000 H       1  UNL1        0.0230
     55 H           1.4631    1.0600    0.0000 H       1  UNL1        0.0230
     56 H           1.6900    0.2131    0.0000 H       1  UNL1        0.0230
     57 H          18.4545    0.8700    0.0000 H       1  UNL1        0.0301
     58 H          17.9870    1.2250    0.0000 H       1  UNL1        0.0380
     59 H          17.1899    1.2250    0.0000 H       1  UNL1        0.0380
     60 H          19.6305    0.2131    0.0000 H       1  UNL1        0.0232
     61 H          19.8574    1.0600    0.0000 H       1  UNL1        0.0232
     62 H          19.0105    1.2869    0.0000 H       1  UNL1        0.0232
     63 H          17.8345   -0.7500    0.0000 H       1  UNL1        0.0232
     64 H          18.4545   -1.3700    0.0000 H       1  UNL1        0.0232
     65 H          19.0745   -0.7500    0.0000 H       1  UNL1        0.0232
@<TRIPOS>BOND
     1     1    17    1
     2     1    21    1
     3     2    21    2
     4     3     4    1
     5     3     5    1
     6     3    24    1
     7     3    25    1
     8     4     6    1
     9     4    26    1
    10     4    27    1
    11     5     7    1
    12     5    28    1
    13     5    29    1
    14     6     8    1
    15     6    30    1
    16     6    31    1
    17     7     9    1
    18     7    32    1
    19     7    33    1
    20     8    10    1
    21     8    34    1
    22     8    35    1
    23     9    11    1
    24     9    36    1
    25     9    37    1
    26    10    12    1
    27    10    38    1
    28    10    39    1
    29    11    13    1
    30    11    40    1
    31    11    41    1
    32    12    14    1
    33    12    42    1
    34    12    43    1
    35    13    15    1
    36    13    44    1
    37    13    45    1
    38    14    16    1
    39    14    46    1
    40    14    47    1
    41    15    17    1
    42    15    48    1
    43    15    49    1
    44    16    18    1
    45    16    50    1
    46    16    51    1
    47    17    52    1
    48    17    53    1
    49    18    54    1
    50    18    55    1
    51    18    56    1
    52    19    20    1
    53    19    22    1
    54    19    23    1
    55    19    57    1
    56    20    21    1
    57    20    58    1
    58    20    59    1
    59    22    60    1
    60    22    61    1
    61    22    62    1
    62    23    63    1
    63    23    64    1
    64    23    65    1
