@<TRIPOS>MOLECULE
IMPHY017401
 50 49 0 0 0
SMALL
GASTEIGER

@<TRIPOS>ATOM
      1 O          12.3923   -3.5600    0.0000 O.2     1  UNL1       -0.3010
      2 C           3.7320    2.4400    0.0000 C.3     1  UNL1       -0.0441
      3 C           4.5981    2.9400    0.0000 C.3     1  UNL1       -0.0505
      4 C           5.4641    2.4400    0.0000 C.3     1  UNL1       -0.0525
      5 C           6.3301    2.9400    0.0000 C.3     1  UNL1       -0.0496
      6 C           2.8660    2.9400    0.0000 C.3     1  UNL1       -0.0533
      7 C           3.7320    1.4400    0.0000 C.3     1  UNL1       -0.0624
      8 C           7.1962    2.4400    0.0000 C.3     1  UNL1       -0.0348
      9 C           9.7942   -0.0600    0.0000 C.3     1  UNL1       -0.0528
     10 C           9.7942    0.9400    0.0000 C.3     1  UNL1       -0.0496
     11 C          10.6603   -0.5600    0.0000 C.3     1  UNL1       -0.0527
     12 C           2.0000    2.4400    0.0000 C.3     1  UNL1       -0.0650
     13 C           8.9282    1.4400    0.0000 C.3     1  UNL1       -0.0348
     14 C           8.0622    2.9400    0.0000 C.2     1  UNL1       -0.0879
     15 C          10.6603   -1.5600    0.0000 C.3     1  UNL1       -0.0466
     16 C           8.9282    2.4400    0.0000 C.2     1  UNL1       -0.0879
     17 C          11.5263   -2.0600    0.0000 C.3     1  UNL1        0.0028
     18 C          11.5263   -3.0600    0.0000 C.2     1  UNL1        0.1203
     19 H           4.4682    2.0150    0.0000 H       1  UNL1        0.0298
     20 H           4.9966    3.4150    0.0000 H       1  UNL1        0.0268
     21 H           4.1996    3.4150    0.0000 H       1  UNL1        0.0268
     22 H           5.0656    1.9650    0.0000 H       1  UNL1        0.0265
     23 H           5.8626    1.9650    0.0000 H       1  UNL1        0.0265
     24 H           6.7287    3.4150    0.0000 H       1  UNL1        0.0268
     25 H           5.9316    3.4150    0.0000 H       1  UNL1        0.0268
     26 H           3.2646    3.4150    0.0000 H       1  UNL1        0.0265
     27 H           2.4675    3.4150    0.0000 H       1  UNL1        0.0265
     28 H           3.1120    1.4400    0.0000 H       1  UNL1        0.0232
     29 H           3.7320    0.8200    0.0000 H       1  UNL1        0.0232
     30 H           4.3520    1.4400    0.0000 H       1  UNL1        0.0232
     31 H           6.7976    1.9650    0.0000 H       1  UNL1        0.0307
     32 H           7.5947    1.9650    0.0000 H       1  UNL1        0.0307
     33 H           9.1836    0.0477    0.0000 H       1  UNL1        0.0265
     34 H           9.5822   -0.6426    0.0000 H       1  UNL1        0.0265
     35 H          10.4048    0.8323    0.0000 H       1  UNL1        0.0268
     36 H          10.0063    1.5226    0.0000 H       1  UNL1        0.0268
     37 H          11.2708   -0.6677    0.0000 H       1  UNL1        0.0265
     38 H          10.8723    0.0226    0.0000 H       1  UNL1        0.0265
     39 H           1.6900    2.9769    0.0000 H       1  UNL1        0.0230
     40 H           1.4631    2.1300    0.0000 H       1  UNL1        0.0230
     41 H           2.3100    1.9031    0.0000 H       1  UNL1        0.0230
     42 H           8.3176    1.5477    0.0000 H       1  UNL1        0.0307
     43 H           8.7162    0.8574    0.0000 H       1  UNL1        0.0307
     44 H           8.0622    3.5600    0.0000 H       1  UNL1        0.0569
     45 H          10.0497   -1.4523    0.0000 H       1  UNL1        0.0269
     46 H          10.4482   -2.1426    0.0000 H       1  UNL1        0.0269
     47 H           9.4651    2.7500    0.0000 H       1  UNL1        0.0569
     48 H          12.1369   -2.1677    0.0000 H       1  UNL1        0.0339
     49 H          11.7383   -1.4774    0.0000 H       1  UNL1        0.0339
     50 H          10.9893   -3.3700    0.0000 H       1  UNL1        0.1026
@<TRIPOS>BOND
     1     1    18    2
     2     2     3    1
     3     2     6    1
     4     2     7    1
     5     2    19    1
     6     3     4    1
     7     3    20    1
     8     3    21    1
     9     4     5    1
    10     4    22    1
    11     4    23    1
    12     5     8    1
    13     5    24    1
    14     5    25    1
    15     6    12    1
    16     6    26    1
    17     6    27    1
    18     7    28    1
    19     7    29    1
    20     7    30    1
    21     8    14    1
    22     8    31    1
    23     8    32    1
    24     9    10    1
    25     9    11    1
    26     9    33    1
    27     9    34    1
    28    10    13    1
    29    10    35    1
    30    10    36    1
    31    11    15    1
    32    11    37    1
    33    11    38    1
    34    12    39    1
    35    12    40    1
    36    12    41    1
    37    13    16    1
    38    13    42    1
    39    13    43    1
    40    14    16    2
    41    14    44    1
    42    15    17    1
    43    15    45    1
    44    15    46    1
    45    16    47    1
    46    17    18    1
    47    17    48    1
    48    17    49    1
    49    18    50    1
