@<TRIPOS>MOLECULE
IMPHY003981
 34 36 0 0 0
SMALL
GASTEIGER

@<TRIPOS>ATOM
      1 O           6.3981   -0.9254    0.0000 O.3     1  UNL1       -0.4828
      2 O           6.3981    2.0746    0.0000 O.2     1  UNL1       -0.2917
      3 O           4.6497    2.1092    0.0000 O.3     1  UNL1       -0.5058
      4 O           2.8680   -0.9495    0.0000 O.3     1  UNL1       -0.4949
      5 C           7.2641   -0.4254    0.0000 C.3     1  UNL1        0.1322
      6 C           7.2641    0.5746    0.0000 C.3     1  UNL1        0.0520
      7 C           5.5320    0.5746    0.0000 C.ar    1  UNL1        0.1007
      8 C           8.1301   -0.9254    0.0000 C.ar    1  UNL1       -0.0069
      9 C           6.3981    1.0746    0.0000 C.2     1  UNL1        0.1740
     10 C           5.5320   -0.4254    0.0000 C.ar    1  UNL1        0.1389
     11 C           4.6381    1.1093    0.0000 C.ar    1  UNL1        0.1343
     12 C           4.6381   -0.9601    0.0000 C.ar    1  UNL1        0.0227
     13 C           8.1301   -1.9254    0.0000 C.ar    1  UNL1       -0.0551
     14 C           8.9962   -0.4254    0.0000 C.ar    1  UNL1       -0.0551
     15 C           3.7320   -0.4462    0.0000 C.ar    1  UNL1        0.1271
     16 C           3.7320    0.5954    0.0000 C.ar    1  UNL1        0.0225
     17 C           8.9962   -2.4254    0.0000 C.ar    1  UNL1       -0.0614
     18 C           9.8622   -0.9254    0.0000 C.ar    1  UNL1       -0.0614
     19 C           9.8622   -1.9254    0.0000 C.ar    1  UNL1       -0.0617
     20 C           2.0000   -0.4529    0.0000 C.3     1  UNL1        0.0788
     21 H           7.2641   -1.0454    0.0000 H       1  UNL1        0.0789
     22 H           7.8747    0.4669    0.0000 H       1  UNL1        0.0385
     23 H           7.4762    1.1572    0.0000 H       1  UNL1        0.0385
     24 H           4.6453   -1.5800    0.0000 H       1  UNL1        0.0691
     25 H           7.5932   -2.2354    0.0000 H       1  UNL1        0.0621
     26 H           8.9962    0.1946    0.0000 H       1  UNL1        0.0621
     27 H           3.1963    0.9075    0.0000 H       1  UNL1        0.0691
     28 H           8.9962   -3.0454    0.0000 H       1  UNL1        0.0618
     29 H          10.3991   -0.6154    0.0000 H       1  UNL1        0.0618
     30 H          10.3991   -2.2354    0.0000 H       1  UNL1        0.0618
     31 H           4.1164    2.4254    0.0000 H       1  UNL1        0.2922
     32 H           2.3079    0.0852    0.0000 H       1  UNL1        0.0660
     33 H           1.4619   -0.1450    0.0000 H       1  UNL1        0.0660
     34 H           1.6921   -0.9910    0.0000 H       1  UNL1        0.0660
@<TRIPOS>BOND
     1     1     5    1
     2     1    10    1
     3     2     9    2
     4     3    11    1
     5     3    31    1
     6     4    15    1
     7     4    20    1
     8     5     6    1
     9     5     8    1
    10     5    21    1
    11     6     9    1
    12     6    22    1
    13     6    23    1
    14     7     9    1
    15     7    10   ar
    16     7    11   ar
    17     8    13   ar
    18     8    14   ar
    19    10    12   ar
    20    11    16   ar
    21    12    15   ar
    22    12    24    1
    23    13    17   ar
    24    13    25    1
    25    14    18   ar
    26    14    26    1
    27    15    16   ar
    28    16    27    1
    29    17    19   ar
    30    17    28    1
    31    18    19   ar
    32    18    29    1
    33    19    30    1
    34    20    32    1
    35    20    33    1
    36    20    34    1
