@<TRIPOS>MOLECULE
IMPHY017944
 17 16 0 0 0
SMALL
GASTEIGER

@<TRIPOS>ATOM
      1 O           6.8671    0.2500    0.0000 O.3     1  UNL1       -0.4478
      2 O           2.5369   -2.2500    0.0000 O.3     1  UNL1       -0.2212
      3 O           6.0010    1.7500    0.0000 O.2     1  UNL1       -0.2501
      4 C           6.0010   -1.2500    0.0000 C.3     1  UNL1        0.0838
      5 C           3.4030   -1.7500    0.0000 C.3     1  UNL1        0.1449
      6 C           6.0010   -0.2500    0.0000 C.3     1  UNL1        0.2166
      7 C           5.1350   -1.7500    0.0000 C.2     1  UNL1       -0.0208
      8 C           4.2690   -1.2500    0.0000 C.2     1  UNL1       -0.0008
      9 C           6.8671   -1.7500    0.0000 C.2     1  UNL1       -0.0366
     10 C           2.9030   -0.8840    0.0000 C.3     1  UNL1        0.0375
     11 C           3.9030   -2.6160    0.0000 C.3     1  UNL1        0.0375
     12 C           7.7331    1.7500    0.0000 C.3     1  UNL1        0.0991
     13 C           7.7331   -1.2500    0.0000 C.3     1  UNL1        0.0268
     14 C           6.8671    1.2500    0.0000 C.2     1  UNL1        0.3164
     15 C           8.5991    1.2500    0.0000 C.3     1  UNL1        0.0116
     16 C           7.7331    2.7500    0.0000 C.3     1  UNL1        0.0116
     17 C           6.8671   -2.7500    0.0000 C.2     1  UNL1       -0.0087
@<TRIPOS>BOND
     1     1     6    1
     2     1    14    1
     3     2     5    1
     4     3    14    2
     5     4     6    1
     6     4     7    1
     7     4     9    1
     8     5     8    1
     9     5    10    1
    10     5    11    1
    11     7     8    2
    12     9    13    1
    13     9    17    2
    14    12    14    1
    15    12    15    1
    16    12    16    1
