@<TRIPOS>MOLECULE
IMPHY014276
 61 64 0 0 0
SMALL
GASTEIGER

@<TRIPOS>ATOM
      1 O           5.1350   -0.6087    0.0000 O.3     1  UNL1       -0.3313
      2 O           6.8671   -0.6087    0.0000 O.3     1  UNL1       -0.4599
      3 O           5.1350   -3.6087    0.0000 O.3     1  UNL1       -0.3864
      4 O           3.4030   -2.6087    0.0000 O.3     1  UNL1       -0.3865
      5 O           6.8671   -2.6087    0.0000 O.3     1  UNL1       -0.3829
      6 O           2.5369   -1.1087    0.0000 O.3     1  UNL1       -0.3924
      7 O           8.6270    2.4259    0.0000 O.2     1  UNL1       -0.4505
      8 O           5.1350    2.3913    0.0000 O.3     1  UNL1       -0.4912
      9 O           6.8671    3.3913    0.0000 O.3     1  UNL1       -0.4885
     10 O           8.6155   -0.6433    0.0000 O.2     1  UNL1       -0.2869
     11 O          11.2690    0.9188    0.0000 O.3     1  UNL1       -0.4944
     12 C           5.1350   -2.6087    0.0000 C.3     1  UNL1        0.1152
     13 C           4.2690   -2.1087    0.0000 C.3     1  UNL1        0.1120
     14 C           6.0010   -2.1087    0.0000 C.3     1  UNL1        0.1454
     15 C           4.2690   -1.1087    0.0000 C.3     1  UNL1        0.1140
     16 C           6.0010   -1.1087    0.0000 C.3     1  UNL1        0.2308
     17 C           3.4030   -0.6087    0.0000 C.3     1  UNL1        0.0731
     18 C           6.8671    0.3913    0.0000 C.ar    1  UNL1        0.1420
     19 C           7.7331    0.8913    0.0000 C.ar    1  UNL1        0.1095
     20 C           6.0010    0.8913    0.0000 C.ar    1  UNL1        0.0265
     21 C           7.7331    1.8913    0.0000 C.ar    1  UNL1        0.1878
     22 C           6.0010    1.8913    0.0000 C.ar    1  UNL1        0.1687
     23 C           6.8671    2.3913    0.0000 C.ar    1  UNL1        0.2051
     24 C           8.6270    0.3566    0.0000 C.ar    1  UNL1        0.1967
     25 C           9.5331    1.9121    0.0000 C.ar    1  UNL1        0.1429
     26 C           9.5331    0.8704    0.0000 C.ar    1  UNL1        0.0289
     27 C          10.3972    2.4154    0.0000 C.ar    1  UNL1        0.0590
     28 C          11.2651    1.9188    0.0000 C.ar    1  UNL1        0.1307
     29 C          10.3933    3.4154    0.0000 C.ar    1  UNL1       -0.0476
     30 C           4.2690    1.8913    0.0000 C.3     1  UNL1        0.0790
     31 C           6.0010    3.8913    0.0000 C.3     1  UNL1        0.0791
     32 C          12.1292    2.4221    0.0000 C.ar    1  UNL1       -0.0192
     33 C          11.2574    3.9187    0.0000 C.ar    1  UNL1       -0.0609
     34 C          12.1254    3.4221    0.0000 C.ar    1  UNL1       -0.0583
     35 C          12.1369    0.4221    0.0000 C.3     1  UNL1        0.0788
     36 H           4.5981   -2.9187    0.0000 H       1  UNL1        0.0648
     37 H           4.2690   -2.7287    0.0000 H       1  UNL1        0.0647
     38 H           6.0010   -2.7287    0.0000 H       1  UNL1        0.0683
     39 H           4.2690   -0.4887    0.0000 H       1  UNL1        0.0647
     40 H           6.0010   -0.4887    0.0000 H       1  UNL1        0.1084
     41 H           3.8015   -0.1338    0.0000 H       1  UNL1        0.0584
     42 H           3.0044   -0.1338    0.0000 H       1  UNL1        0.0584
     43 H           4.5981   -3.9187    0.0000 H       1  UNL1        0.2100
     44 H           3.4030   -3.2287    0.0000 H       1  UNL1        0.2100
     45 H           6.8671   -3.2287    0.0000 H       1  UNL1        0.2102
     46 H           2.0000   -0.7987    0.0000 H       1  UNL1        0.2095
     47 H           5.4641    0.5813    0.0000 H       1  UNL1        0.0692
     48 H          10.0688    0.5584    0.0000 H       1  UNL1        0.0693
     49 H           9.8552    3.7233    0.0000 H       1  UNL1        0.0626
     50 H           3.9590    2.4282    0.0000 H       1  UNL1        0.0660
     51 H           3.7320    1.5813    0.0000 H       1  UNL1        0.0660
     52 H           4.5790    1.3543    0.0000 H       1  UNL1        0.0660
     53 H           6.3110    4.4282    0.0000 H       1  UNL1        0.0660
     54 H           5.4641    4.2013    0.0000 H       1  UNL1        0.0660
     55 H           5.6910    3.3543    0.0000 H       1  UNL1        0.0660
     56 H          12.6674    2.1142    0.0000 H       1  UNL1        0.0654
     57 H          11.2550    4.5387    0.0000 H       1  UNL1        0.0618
     58 H          12.6611    3.7342    0.0000 H       1  UNL1        0.0619
     59 H          11.8290   -0.1160    0.0000 H       1  UNL1        0.0660
     60 H          12.6751    0.1142    0.0000 H       1  UNL1        0.0660
     61 H          12.4449    0.9602    0.0000 H       1  UNL1        0.0660
@<TRIPOS>BOND
     1     1    15    1
     2     1    16    1
     3     2    16    1
     4     2    18    1
     5     3    12    1
     6     3    43    1
     7     4    13    1
     8     4    44    1
     9     5    14    1
    10     5    45    1
    11     6    17    1
    12     6    46    1
    13     7    21   ar
    14     7    25   ar
    15     8    22    1
    16     8    30    1
    17     9    23    1
    18     9    31    1
    19    10    24    2
    20    11    28    1
    21    11    35    1
    22    12    13    1
    23    12    14    1
    24    12    36    1
    25    13    15    1
    26    13    37    1
    27    14    16    1
    28    14    38    1
    29    15    17    1
    30    15    39    1
    31    16    40    1
    32    17    41    1
    33    17    42    1
    34    18    19   ar
    35    18    20   ar
    36    19    21   ar
    37    19    24   ar
    38    20    22   ar
    39    20    47    1
    40    21    23   ar
    41    22    23   ar
    42    24    26   ar
    43    25    26   ar
    44    25    27    1
    45    26    48    1
    46    27    28   ar
    47    27    29   ar
    48    28    32   ar
    49    29    33   ar
    50    29    49    1
    51    30    50    1
    52    30    51    1
    53    30    52    1
    54    31    53    1
    55    31    54    1
    56    31    55    1
    57    32    34   ar
    58    32    56    1
    59    33    34   ar
    60    33    57    1
    61    34    58    1
    62    35    59    1
    63    35    60    1
    64    35    61    1
