@<TRIPOS>MOLECULE
IMPHY006759
 47 49 0 0 0
SMALL
GASTEIGER

@<TRIPOS>ATOM
      1 O           5.4094    0.7500    0.0000 O.3     1  UNL1       -0.4569
      2 O           4.0067    1.1041    0.0000 O.3     1  UNL1       -0.3532
      3 O           8.0354   -0.7846    0.0000 O.2     1  UNL1       -0.4217
      4 O           3.0067    1.1080    0.0000 O.3     1  UNL1       -0.3810
      5 O           7.1694   -2.2846    0.0000 O.2     1  UNL1       -0.2447
      6 C           5.4094   -1.3193    0.0000 C.3     1  UNL1        0.0270
      7 C           4.5033   -0.8054    0.0000 C.3     1  UNL1        0.0289
      8 C           4.5033    0.2362    0.0000 C.3     1  UNL1        0.2412
      9 C           6.3033   -0.7846    0.0000 C.ar    1  UNL1        0.0891
     10 C           3.5033    0.2400    0.0000 C.3     1  UNL1        0.1406
     11 C           6.3033    0.2154    0.0000 C.ar    1  UNL1        0.1460
     12 C           5.9194   -2.1795    0.0000 C.3     1  UNL1       -0.0515
     13 C           4.9194   -2.1910    0.0000 C.2     1  UNL1       -0.0804
     14 C           7.1694    0.7154    0.0000 C.ar    1  UNL1        0.0625
     15 C           7.1694   -1.2846    0.0000 C.ar    1  UNL1        0.3448
     16 C           3.0000   -0.6241    0.0000 C.2     1  UNL1       -0.0454
     17 C           8.0354    0.2154    0.0000 C.ar    1  UNL1        0.1428
     18 C           7.1533    1.7569    0.0000 C.ar    1  UNL1       -0.0363
     19 C           3.9195   -2.2026    0.0000 C.2     1  UNL1       -0.1018
     20 C           2.0000   -0.6202    0.0000 C.3     1  UNL1       -0.0414
     21 C           8.9454    0.7222    0.0000 C.ar    1  UNL1       -0.0185
     22 C           8.0513    2.2846    0.0000 C.ar    1  UNL1       -0.0579
     23 C           3.4966   -1.4920    0.0000 C.2     1  UNL1       -0.0971
     24 C           6.2816    2.2468    0.0000 C.3     1  UNL1       -0.0389
     25 C           8.9534    1.7638    0.0000 C.ar    1  UNL1       -0.0580
     26 H           3.8925   -0.6994    0.0000 H       1  UNL1        0.0341
     27 H           4.2943   -1.3891    0.0000 H       1  UNL1        0.0341
     28 H           2.8833    0.2424    0.0000 H       1  UNL1        0.0706
     29 H           5.3860   -2.4957    0.0000 H       1  UNL1        0.0241
     30 H           6.2356   -2.7128    0.0000 H       1  UNL1        0.0241
     31 H           6.4527   -1.8633    0.0000 H       1  UNL1        0.0241
     32 H           5.2356   -2.7244    0.0000 H       1  UNL1        0.0575
     33 H           4.3187    1.6399    0.0000 H       1  UNL1        0.2139
     34 H           2.3867    1.1104    0.0000 H       1  UNL1        0.2105
     35 H           3.6033   -1.6693    0.0000 H       1  UNL1        0.0532
     36 H           3.6157   -2.7431    0.0000 H       1  UNL1        0.0532
     37 H           2.0024   -0.0002    0.0000 H       1  UNL1        0.0275
     38 H           1.3800   -0.6178    0.0000 H       1  UNL1        0.0275
     39 H           1.9976   -1.2402    0.0000 H       1  UNL1        0.0275
     40 H           9.4787    0.4060    0.0000 H       1  UNL1        0.0654
     41 H           8.0489    2.9046    0.0000 H       1  UNL1        0.0620
     42 H           3.1846   -2.0277    0.0000 H       1  UNL1        0.0535
     43 H           4.1166   -1.4944    0.0000 H       1  UNL1        0.0535
     44 H           6.5853    2.7873    0.0000 H       1  UNL1        0.0278
     45 H           5.7411    2.5506    0.0000 H       1  UNL1        0.0278
     46 H           5.9778    1.7063    0.0000 H       1  UNL1        0.0278
     47 H           9.4915    2.0717    0.0000 H       1  UNL1        0.0619
@<TRIPOS>BOND
     1     1     8    1
     2     1    11    1
     3     8     2    1
     4     2    33    1
     5     3    15   ar
     6     3    17   ar
     7    10     4    1
     8     4    34    1
     9     5    15    2
    10     6     7    1
    11     6     9    1
    12     6    12    1
    13     6    13    1
    14     7     8    1
    15     7    26    1
    16     7    27    1
    17     8    10    1
    18     9    11   ar
    19     9    15   ar
    20    10    16    1
    21    10    28    1
    22    11    14   ar
    23    12    29    1
    24    12    30    1
    25    12    31    1
    26    13    19    2
    27    13    32    1
    28    14    17   ar
    29    14    18   ar
    30    16    20    1
    31    16    23    2
    32    17    21   ar
    33    18    22   ar
    34    18    24    1
    35    19    35    1
    36    19    36    1
    37    20    37    1
    38    20    38    1
    39    20    39    1
    40    21    25   ar
    41    21    40    1
    42    22    25   ar
    43    22    41    1
    44    23    42    1
    45    23    43    1
    46    24    44    1
    47    24    45    1
    48    24    46    1
    49    25    47    1
