@<TRIPOS>MOLECULE
IMPHY017556
 54 56 0 0 0
SMALL
GASTEIGER

@<TRIPOS>ATOM
      1 O           5.5442    1.9895    0.0000 O.3     1  UNL1       -0.4257
      2 O           3.8121    1.9828    0.0000 O.2     1  UNL1       -0.2507
      3 C           3.8000   -1.0798    0.0000 C.3     1  UNL1        0.0004
      4 C           3.8000   -2.0798    0.0000 C.3     1  UNL1       -0.0080
      5 C           2.9061   -2.6144    0.0000 C.3     1  UNL1       -0.0278
      6 C           2.9061   -0.5451    0.0000 C.3     1  UNL1       -0.0430
      7 C           2.0000   -2.1006    0.0000 C.3     1  UNL1       -0.0473
      8 C           2.0000   -1.0589    0.0000 C.3     1  UNL1       -0.0517
      9 C           4.6660   -0.5797    0.0000 C.ar    1  UNL1       -0.0303
     10 C           3.8000   -0.0797    0.0000 C.3     1  UNL1       -0.0550
     11 C           4.6660   -2.5798    0.0000 C.2     1  UNL1       -0.0790
     12 C           2.4161   -3.4862    0.0000 C.3     1  UNL1       -0.0593
     13 C           3.4160   -3.4746    0.0000 C.3     1  UNL1       -0.0593
     14 C           5.5321   -1.0798    0.0000 C.ar    1  UNL1       -0.0211
     15 C           5.5321   -2.0798    0.0000 C.2     1  UNL1       -0.0579
     16 C           4.6500    0.4618    0.0000 C.ar    1  UNL1       -0.0147
     17 C           6.4421   -0.5729    0.0000 C.ar    1  UNL1       -0.0474
     18 C           5.5480    0.9895    0.0000 C.ar    1  UNL1        0.1353
     19 C           6.4501    0.4687    0.0000 C.ar    1  UNL1       -0.0019
     20 C           7.3180    0.9654    0.0000 C.3     1  UNL1       -0.0180
     21 C           8.1821    0.4620    0.0000 C.3     1  UNL1       -0.0585
     22 C           7.3219    1.9654    0.0000 C.3     1  UNL1       -0.0585
     23 C           4.6762    2.4862    0.0000 C.2     1  UNL1        0.3092
     24 C           4.6724    3.4862    0.0000 C.3     1  UNL1        0.0336
     25 H           3.8048   -2.6997    0.0000 H       1  UNL1        0.0357
     26 H           3.3107   -0.0753    0.0000 H       1  UNL1        0.0274
     27 H           2.5124   -0.0661    0.0000 H       1  UNL1        0.0274
     28 H           1.3891   -1.9945    0.0000 H       1  UNL1        0.0271
     29 H           1.7909   -2.6842    0.0000 H       1  UNL1        0.0271
     30 H           1.7909   -0.4752    0.0000 H       1  UNL1        0.0266
     31 H           1.3891   -1.1650    0.0000 H       1  UNL1        0.0266
     32 H           4.4200   -0.0797    0.0000 H       1  UNL1        0.0238
     33 H           3.8000    0.5403    0.0000 H       1  UNL1        0.0238
     34 H           3.1800   -0.0797    0.0000 H       1  UNL1        0.0238
     35 H           4.6660   -3.1998    0.0000 H       1  UNL1        0.0575
     36 H           1.8756   -3.1824    0.0000 H       1  UNL1        0.0235
     37 H           2.1123   -4.0266    0.0000 H       1  UNL1        0.0235
     38 H           2.9566   -3.7899    0.0000 H       1  UNL1        0.0235
     39 H           2.8827   -3.7908    0.0000 H       1  UNL1        0.0235
     40 H           3.7322   -4.0079    0.0000 H       1  UNL1        0.0235
     41 H           3.9494   -3.1584    0.0000 H       1  UNL1        0.0235
     42 H           6.0690   -2.3898    0.0000 H       1  UNL1        0.0621
     43 H           4.1095    0.7655    0.0000 H       1  UNL1        0.0657
     44 H           6.9754   -0.8891    0.0000 H       1  UNL1        0.0627
     45 H           7.8562    1.2733    0.0000 H       1  UNL1        0.0345
     46 H           7.8701   -0.0737    0.0000 H       1  UNL1        0.0235
     47 H           8.7179    0.1500    0.0000 H       1  UNL1        0.0235
     48 H           8.4942    0.9978    0.0000 H       1  UNL1        0.0235
     49 H           7.9419    1.9630    0.0000 H       1  UNL1        0.0235
     50 H           7.3243    2.5853    0.0000 H       1  UNL1        0.0235
     51 H           6.7019    1.9677    0.0000 H       1  UNL1        0.0235
     52 H           5.2924    3.4886    0.0000 H       1  UNL1        0.0342
     53 H           4.6700    4.1062    0.0000 H       1  UNL1        0.0342
     54 H           4.0524    3.4838    0.0000 H       1  UNL1        0.0342
@<TRIPOS>BOND
     1     1    18    1
     2     1    23    1
     3     2    23    2
     4     3     4    1
     5     3     6    1
     6     3     9    1
     7     3    10    1
     8     4     5    1
     9     4    11    1
    10     4    25    1
    11     5     7    1
    12     5    12    1
    13     5    13    1
    14     6     8    1
    15     6    26    1
    16     6    27    1
    17     7     8    1
    18     7    28    1
    19     7    29    1
    20     8    30    1
    21     8    31    1
    22     9    14   ar
    23     9    16   ar
    24    10    32    1
    25    10    33    1
    26    10    34    1
    27    11    15    2
    28    11    35    1
    29    12    36    1
    30    12    37    1
    31    12    38    1
    32    13    39    1
    33    13    40    1
    34    13    41    1
    35    14    15    1
    36    14    17   ar
    37    15    42    1
    38    16    18   ar
    39    16    43    1
    40    17    19   ar
    41    17    44    1
    42    18    19   ar
    43    19    20    1
    44    20    21    1
    45    20    22    1
    46    20    45    1
    47    21    46    1
    48    21    47    1
    49    21    48    1
    50    22    49    1
    51    22    50    1
    52    22    51    1
    53    23    24    1
    54    24    52    1
    55    24    53    1
    56    24    54    1
