@<TRIPOS>MOLECULE
IMPHY017828
 45 47 0 0 0
SMALL
GASTEIGER

@<TRIPOS>ATOM
      1 O           4.7408   -0.5550    0.0000 O.3     1  UNL1       -0.3691
      2 O           7.2529   -1.3236    0.0000 O.3     1  UNL1       -0.4589
      3 O           8.8034   -0.5515    0.0000 O.2     1  UNL1       -0.2512
      4 C           5.7584    1.0919    0.0000 C.3     1  UNL1       -0.0243
      5 C           5.1967    1.5188    0.0000 C.3     1  UNL1       -0.0054
      6 C           5.7359    0.0135    0.0000 C.3     1  UNL1        0.0992
      7 C           4.1407    0.0359    0.0000 C.3     1  UNL1        0.0628
      8 C           4.6799    0.7324    0.0000 C.3     1  UNL1       -0.0206
      9 C           3.6914    1.0020    0.0000 C.3     1  UNL1       -0.0120
     10 C           4.4778    1.7210    0.0000 C.3     1  UNL1       -0.0418
     11 C           6.6796    0.9346    0.0000 C.3     1  UNL1       -0.0438
     12 C           6.8072   -0.4284    0.0000 C.3     1  UNL1        0.1293
     13 C           7.2637    0.2606    0.0000 C.3     1  UNL1       -0.0127
     14 C           6.1565    2.0092    0.0000 C.3     1  UNL1       -0.0591
     15 C           2.7380    1.3037    0.0000 C.3     1  UNL1       -0.0415
     16 C           2.5226    2.2803    0.0000 C.3     1  UNL1       -0.0623
     17 C           2.0000    0.6289    0.0000 C.3     1  UNL1       -0.0623
     18 C           8.2510   -1.3851    0.0000 C.2     1  UNL1        0.3043
     19 C           8.6968   -2.2803    0.0000 C.3     1  UNL1        0.0332
     20 H           5.4731    2.0738    0.0000 H       1  UNL1        0.0332
     21 H           5.7755   -0.6053    0.0000 H       1  UNL1        0.0636
     22 H           3.4461   -0.4540    0.0000 H       1  UNL1        0.0599
     23 H           4.6831    1.3524    0.0000 H       1  UNL1        0.0296
     24 H           5.0386    0.2267    0.0000 H       1  UNL1        0.0296
     25 H           3.5579    1.6074    0.0000 H       1  UNL1        0.0328
     26 H           4.7527    2.2767    0.0000 H       1  UNL1        0.0272
     27 H           3.9822    2.0936    0.0000 H       1  UNL1        0.0272
     28 H           7.2458    1.1873    0.0000 H       1  UNL1        0.0272
     29 H           6.6021    1.5498    0.0000 H       1  UNL1        0.0272
     30 H           6.3846   -0.8820    0.0000 H       1  UNL1        0.0760
     31 H           7.7475   -0.1271    0.0000 H       1  UNL1        0.0302
     32 H           7.6936    0.7074    0.0000 H       1  UNL1        0.0302
     33 H           6.7253    1.7624    0.0000 H       1  UNL1        0.0235
     34 H           6.4034    2.5779    0.0000 H       1  UNL1        0.0235
     35 H           5.5878    2.2560    0.0000 H       1  UNL1        0.0235
     36 H           2.1469    1.4908    0.0000 H       1  UNL1        0.0299
     37 H           3.1281    2.4138    0.0000 H       1  UNL1        0.0232
     38 H           2.3891    2.8857    0.0000 H       1  UNL1        0.0232
     39 H           1.9172    2.1467    0.0000 H       1  UNL1        0.0232
     40 H           1.5816    1.0865    0.0000 H       1  UNL1        0.0232
     41 H           1.5424    0.2106    0.0000 H       1  UNL1        0.0232
     42 H           2.4184    0.1714    0.0000 H       1  UNL1        0.0232
     43 H           8.1418   -2.5566    0.0000 H       1  UNL1        0.0342
     44 H           8.9732   -2.8353    0.0000 H       1  UNL1        0.0342
     45 H           9.2518   -2.0039    0.0000 H       1  UNL1        0.0342
@<TRIPOS>BOND
     1     1     6    1
     2     1     7    1
     3    12     2    1
     4     2    18    1
     5     3    18    2
     6     4     5    1
     7     4     8    1
     8     4    11    1
     9     4    14    1
    10     5     6    1
    11     5    10    1
    12     5    20    1
    13     6    12    1
    14     6    21    1
    15     7     8    1
    16     7     9    1
    17     7    22    1
    18     8    23    1
    19     8    24    1
    20     9    10    1
    21     9    15    1
    22     9    25    1
    23    10    26    1
    24    10    27    1
    25    11    13    1
    26    11    28    1
    27    11    29    1
    28    12    13    1
    29    12    30    1
    30    13    31    1
    31    13    32    1
    32    14    33    1
    33    14    34    1
    34    14    35    1
    35    15    16    1
    36    15    17    1
    37    15    36    1
    38    16    37    1
    39    16    38    1
    40    16    39    1
    41    17    40    1
    42    17    41    1
    43    17    42    1
    44    18    19    1
    45    19    43    1
    46    19    44    1
    47    19    45    1
