@<TRIPOS>MOLECULE
IMPHY016297
 40 39 0 0 0
SMALL
GASTEIGER

@<TRIPOS>ATOM
      1 O           5.4641    1.1830    0.0000 O.2     1  UNL1       -0.2974
      2 C           2.8660   -0.3170    0.0000 C.3     1  UNL1       -0.0373
      3 C           8.0622   -0.3170    0.0000 C.3     1  UNL1       -0.0373
      4 C           3.7320    0.1830    0.0000 C.3     1  UNL1       -0.0414
      5 C           7.1962    0.1830    0.0000 C.3     1  UNL1       -0.0414
      6 C           4.5981   -0.3170    0.0000 C.3     1  UNL1        0.0063
      7 C           6.3301   -0.3170    0.0000 C.3     1  UNL1        0.0063
      8 C           5.4641    0.1830    0.0000 C.2     1  UNL1        0.1334
      9 C           2.0000   -0.8170    0.0000 C.3     1  UNL1       -0.0601
     10 C           2.3660    0.5490    0.0000 C.3     1  UNL1       -0.0601
     11 C           3.3660   -1.1830    0.0000 C.3     1  UNL1       -0.0601
     12 C           8.9282   -0.8170    0.0000 C.3     1  UNL1       -0.0601
     13 C           8.5622    0.5490    0.0000 C.3     1  UNL1       -0.0601
     14 C           7.5622   -1.1830    0.0000 C.3     1  UNL1       -0.0601
     15 H           4.1306    0.6580    0.0000 H       1  UNL1        0.0274
     16 H           3.3335    0.6580    0.0000 H       1  UNL1        0.0274
     17 H           7.5947    0.6580    0.0000 H       1  UNL1        0.0274
     18 H           6.7976    0.6580    0.0000 H       1  UNL1        0.0274
     19 H           4.1996   -0.7919    0.0000 H       1  UNL1        0.0342
     20 H           4.9966   -0.7919    0.0000 H       1  UNL1        0.0342
     21 H           5.9316   -0.7919    0.0000 H       1  UNL1        0.0342
     22 H           6.7287   -0.7919    0.0000 H       1  UNL1        0.0342
     23 H           1.6900   -0.2801    0.0000 H       1  UNL1        0.0235
     24 H           1.4631   -1.1270    0.0000 H       1  UNL1        0.0235
     25 H           2.3100   -1.3539    0.0000 H       1  UNL1        0.0235
     26 H           2.9030    0.8590    0.0000 H       1  UNL1        0.0235
     27 H           2.0560    1.0860    0.0000 H       1  UNL1        0.0235
     28 H           1.8291    0.2390    0.0000 H       1  UNL1        0.0235
     29 H           2.8291   -1.4930    0.0000 H       1  UNL1        0.0235
     30 H           3.6760   -1.7200    0.0000 H       1  UNL1        0.0235
     31 H           3.9030   -0.8730    0.0000 H       1  UNL1        0.0235
     32 H           8.6182   -1.3539    0.0000 H       1  UNL1        0.0235
     33 H           9.4651   -1.1270    0.0000 H       1  UNL1        0.0235
     34 H           9.2382   -0.2801    0.0000 H       1  UNL1        0.0235
     35 H           9.0991    0.2390    0.0000 H       1  UNL1        0.0235
     36 H           8.8722    1.0860    0.0000 H       1  UNL1        0.0235
     37 H           8.0252    0.8590    0.0000 H       1  UNL1        0.0235
     38 H           7.0252   -0.8730    0.0000 H       1  UNL1        0.0235
     39 H           7.2522   -1.7200    0.0000 H       1  UNL1        0.0235
     40 H           8.0991   -1.4930    0.0000 H       1  UNL1        0.0235
@<TRIPOS>BOND
     1     1     8    2
     2     2     4    1
     3     2     9    1
     4     2    10    1
     5     2    11    1
     6     3     5    1
     7     3    12    1
     8     3    13    1
     9     3    14    1
    10     4     6    1
    11     4    15    1
    12     4    16    1
    13     5     7    1
    14     5    17    1
    15     5    18    1
    16     6     8    1
    17     6    19    1
    18     6    20    1
    19     7     8    1
    20     7    21    1
    21     7    22    1
    22     9    23    1
    23     9    24    1
    24     9    25    1
    25    10    26    1
    26    10    27    1
    27    10    28    1
    28    11    29    1
    29    11    30    1
    30    11    31    1
    31    12    32    1
    32    12    33    1
    33    12    34    1
    34    13    35    1
    35    13    36    1
    36    13    37    1
    37    14    38    1
    38    14    39    1
    39    14    40    1
