@<TRIPOS>MOLECULE
IMPHY000742
 53 55 0 0 0
SMALL
GASTEIGER

@<TRIPOS>ATOM
      1 O           8.0901   -1.6117    0.0000 O.3     1  UNL1       -0.4908
      2 O           6.3301    1.4229    0.0000 O.3     1  UNL1       -0.4943
      3 O           4.5981   -1.5771    0.0000 O.3     1  UNL1       -0.4946
      4 O          10.7321   -1.0496    0.0000 O.3     1  UNL1       -0.5064
      5 O          12.4525    1.9571    0.0000 O.3     1  UNL1       -0.5066
      6 C           8.9962   -0.0563    0.0000 C.3     1  UNL1        0.0259
      7 C           8.0901    0.4576    0.0000 C.3     1  UNL1       -0.0107
      8 C           7.1962   -0.0771    0.0000 C.ar    1  UNL1        0.0370
      9 C           8.9962   -1.0979    0.0000 C.3     1  UNL1        0.0968
     10 C           9.8602    0.4471    0.0000 C.ar    1  UNL1        0.0009
     11 C           7.1962   -1.0771    0.0000 C.ar    1  UNL1        0.1307
     12 C           6.3301    0.4229    0.0000 C.ar    1  UNL1        0.1337
     13 C           5.4641   -0.0771    0.0000 C.ar    1  UNL1        0.0400
     14 C           6.3301   -1.5771    0.0000 C.ar    1  UNL1        0.0226
     15 C           5.4641   -1.0771    0.0000 C.ar    1  UNL1        0.1305
     16 C          10.7282   -0.0496    0.0000 C.ar    1  UNL1        0.1239
     17 C           9.8564    1.4471    0.0000 C.ar    1  UNL1       -0.0513
     18 C           4.5981    0.4229    0.0000 C.3     1  UNL1       -0.0023
     19 C          11.5923    0.4538    0.0000 C.ar    1  UNL1        0.0216
     20 C          10.7205    1.9504    0.0000 C.ar    1  UNL1       -0.0197
     21 C           3.7320   -0.0771    0.0000 C.2     1  UNL1       -0.0807
     22 C          11.5884    1.4537    0.0000 C.ar    1  UNL1        0.1203
     23 C           5.4641    1.9229    0.0000 C.3     1  UNL1        0.0788
     24 C           2.8660    0.4229    0.0000 C.2     1  UNL1       -0.0793
     25 C           4.5981   -2.5771    0.0000 C.3     1  UNL1        0.0788
     26 C           2.0000   -0.0771    0.0000 C.3     1  UNL1       -0.0440
     27 C           2.8660    1.4229    0.0000 C.3     1  UNL1       -0.0440
     28 H           8.9913    0.7937    0.0000 H       1  UNL1        0.0386
     29 H           8.4837    0.9366    0.0000 H       1  UNL1        0.0322
     30 H           7.6855    0.9274    0.0000 H       1  UNL1        0.0322
     31 H           9.2052   -1.6816    0.0000 H       1  UNL1        0.0703
     32 H           9.6070   -0.9918    0.0000 H       1  UNL1        0.0703
     33 H           6.3301   -2.1971    0.0000 H       1  UNL1        0.0691
     34 H           9.3183    1.7550    0.0000 H       1  UNL1        0.0623
     35 H           4.9966    0.8979    0.0000 H       1  UNL1        0.0358
     36 H           4.1996    0.8979    0.0000 H       1  UNL1        0.0358
     37 H          12.1304    0.1458    0.0000 H       1  UNL1        0.0691
     38 H          10.7181    2.5704    0.0000 H       1  UNL1        0.0654
     39 H           3.7320   -0.6971    0.0000 H       1  UNL1        0.0575
     40 H           5.7741    2.4599    0.0000 H       1  UNL1        0.0660
     41 H           4.9272    2.2329    0.0000 H       1  UNL1        0.0660
     42 H           5.1541    1.3860    0.0000 H       1  UNL1        0.0660
     43 H          11.2702   -1.3575    0.0000 H       1  UNL1        0.2921
     44 H           3.9781   -2.5771    0.0000 H       1  UNL1        0.0660
     45 H           4.5981   -3.1971    0.0000 H       1  UNL1        0.0660
     46 H           5.2181   -2.5771    0.0000 H       1  UNL1        0.0660
     47 H           3.4860    1.4229    0.0000 H       1  UNL1        0.0274
     48 H           2.8660    2.0429    0.0000 H       1  UNL1        0.0274
     49 H           2.2460    1.4229    0.0000 H       1  UNL1        0.0274
     50 H           1.6900    0.4599    0.0000 H       1  UNL1        0.0274
     51 H           1.4631   -0.3871    0.0000 H       1  UNL1        0.0274
     52 H           2.3100   -0.6140    0.0000 H       1  UNL1        0.0274
     53 H          12.4501    2.5771    0.0000 H       1  UNL1        0.2921
@<TRIPOS>BOND
     1     1     9    1
     2     1    11    1
     3     2    12    1
     4     2    23    1
     5     3    15    1
     6     3    25    1
     7     4    16    1
     8     4    43    1
     9     5    22    1
    10     5    53    1
    11     6     7    1
    12     6     9    1
    13     6    10    1
    14     6    28    1
    15     7     8    1
    16     7    29    1
    17     7    30    1
    18     8    11   ar
    19     8    12   ar
    20     9    31    1
    21     9    32    1
    22    10    16   ar
    23    10    17   ar
    24    11    14   ar
    25    12    13   ar
    26    13    15   ar
    27    13    18    1
    28    14    15   ar
    29    14    33    1
    30    16    19   ar
    31    17    20   ar
    32    17    34    1
    33    18    21    1
    34    18    35    1
    35    18    36    1
    36    19    22   ar
    37    19    37    1
    38    20    22   ar
    39    20    38    1
    40    21    24    2
    41    21    39    1
    42    23    40    1
    43    23    41    1
    44    23    42    1
    45    24    26    1
    46    24    27    1
    47    25    44    1
    48    25    45    1
    49    25    46    1
    50    26    50    1
    51    26    51    1
    52    26    52    1
    53    27    47    1
    54    27    48    1
    55    27    49    1
