@<TRIPOS>MOLECULE
IMPHY005766
 34 36 0 0 0
SMALL
GASTEIGER

@<TRIPOS>ATOM
      1 O           6.0290   -0.9259    0.0000 O.2     1  UNL1       -0.4537
      2 O           4.2690    2.1087    0.0000 O.3     1  UNL1       -0.5055
      3 O           2.5369   -0.8913    0.0000 O.3     1  UNL1       -0.5056
      4 O           6.0174    2.1433    0.0000 O.2     1  UNL1       -0.2869
      5 O           3.4030   -2.3913    0.0000 O.2     1  UNL1       -0.2955
      6 C           5.1350    0.6087    0.0000 C.ar    1  UNL1        0.1064
      7 C           5.1350   -0.3913    0.0000 C.ar    1  UNL1        0.1565
      8 C           3.4030    0.6087    0.0000 C.ar    1  UNL1        0.0339
      9 C           4.2690    1.1087    0.0000 C.ar    1  UNL1        0.1376
     10 C           4.2690   -0.8913    0.0000 C.ar    1  UNL1        0.0989
     11 C           3.4030   -0.3913    0.0000 C.ar    1  UNL1        0.1370
     12 C           6.9350   -0.4121    0.0000 C.ar    1  UNL1        0.1393
     13 C           6.0290    1.1434    0.0000 C.ar    1  UNL1        0.1966
     14 C           6.9350    0.6296    0.0000 C.ar    1  UNL1        0.0288
     15 C           7.7991   -0.9154    0.0000 C.ar    1  UNL1        0.0174
     16 C           2.5369    1.1087    0.0000 C.3     1  UNL1       -0.0327
     17 C           4.2690   -1.8913    0.0000 C.2     1  UNL1        0.1573
     18 C           7.7953   -1.9154    0.0000 C.ar    1  UNL1       -0.0511
     19 C           8.6671   -0.4188    0.0000 C.ar    1  UNL1       -0.0511
     20 C           8.6594   -2.4187    0.0000 C.ar    1  UNL1       -0.0611
     21 C           9.5312   -0.9221    0.0000 C.ar    1  UNL1       -0.0611
     22 C           9.5273   -1.9221    0.0000 C.ar    1  UNL1       -0.0617
     23 H           7.4708    0.9416    0.0000 H       1  UNL1        0.0693
     24 H           2.8469    1.6457    0.0000 H       1  UNL1        0.0280
     25 H           2.0000    1.4187    0.0000 H       1  UNL1        0.0280
     26 H           2.2269    0.5718    0.0000 H       1  UNL1        0.0280
     27 H           4.8059   -2.2013    0.0000 H       1  UNL1        0.1084
     28 H           7.2571   -2.2233    0.0000 H       1  UNL1        0.0625
     29 H           8.6694    0.2012    0.0000 H       1  UNL1        0.0625
     30 H           3.7320    2.4187    0.0000 H       1  UNL1        0.2922
     31 H           2.0000   -0.5813    0.0000 H       1  UNL1        0.2922
     32 H           8.6570   -3.0387    0.0000 H       1  UNL1        0.0618
     33 H          10.0693   -0.6142    0.0000 H       1  UNL1        0.0618
     34 H          10.0630   -2.2342    0.0000 H       1  UNL1        0.0618
@<TRIPOS>BOND
     1     1     7   ar
     2     1    12   ar
     3     2     9    1
     4     2    30    1
     5     3    11    1
     6     3    31    1
     7     4    13    2
     8     5    17    2
     9     6     7   ar
    10     6     9   ar
    11     6    13   ar
    12     7    10   ar
    13     8     9   ar
    14     8    11   ar
    15     8    16    1
    16    10    11   ar
    17    10    17    1
    18    12    14   ar
    19    12    15    1
    20    13    14   ar
    21    14    23    1
    22    15    18   ar
    23    15    19   ar
    24    16    24    1
    25    16    25    1
    26    16    26    1
    27    17    27    1
    28    18    20   ar
    29    18    28    1
    30    19    21   ar
    31    19    29    1
    32    20    22   ar
    33    20    32    1
    34    21    22   ar
    35    21    33    1
    36    22    34    1
