@<TRIPOS>MOLECULE
IMPHY012451
 78 84 0 0 0
SMALL
GASTEIGER

@<TRIPOS>ATOM
      1 O           7.1982    0.9518    0.0000 O.3     1  UNL1       -0.4479
      2 O           6.6738    3.3922    0.0000 O.3     1  UNL1       -0.4914
      3 O           5.0588   -2.9528    0.0000 O.3     1  UNL1       -0.4523
      4 O           3.3259   -3.9528    0.0000 O.3     1  UNL1       -0.4914
      5 O           7.7312    3.3953    0.0000 O.3     1  UNL1       -0.5009
      6 O           8.9311    3.9528    0.0000 O.3     1  UNL1       -0.4913
      7 N           2.8660    1.4521    0.0000 N.3     1  UNL1       -0.2978
      8 N           9.7975   -0.5489    0.0000 N.ar    1  UNL1       -0.2588
      9 C           3.7325    0.9518    0.0000 C.3     1  UNL1        0.0397
     10 C           4.5989    1.4521    0.0000 C.ar    1  UNL1       -0.0231
     11 C           2.8660    2.4526    0.0000 C.3     1  UNL1        0.0032
     12 C           3.7325    2.9528    0.0000 C.3     1  UNL1       -0.0144
     13 C           4.5989    2.4526    0.0000 C.ar    1  UNL1       -0.0378
     14 C           3.3259    0.0486    0.0000 C.3     1  UNL1       -0.0078
     15 C           5.4653    0.9518    0.0000 C.ar    1  UNL1       -0.0107
     16 C           2.0000    0.9521    0.0000 C.3     1  UNL1       -0.0122
     17 C           5.4653    2.9528    0.0000 C.ar    1  UNL1       -0.0128
     18 C           3.3259   -0.9518    0.0000 C.ar    1  UNL1       -0.0419
     19 C           6.3318    1.4521    0.0000 C.ar    1  UNL1        0.1703
     20 C           6.3318    2.4526    0.0000 C.ar    1  UNL1        0.1624
     21 C           4.1924   -1.4521    0.0000 C.ar    1  UNL1       -0.0124
     22 C           2.4595   -1.4521    0.0000 C.ar    1  UNL1       -0.0548
     23 C           4.1924   -2.4526    0.0000 C.ar    1  UNL1        0.1701
     24 C           2.4595   -2.4526    0.0000 C.ar    1  UNL1       -0.0160
     25 C           8.0646    1.4521    0.0000 C.ar    1  UNL1        0.1829
     26 C           3.3259   -2.9528    0.0000 C.ar    1  UNL1        0.1621
     27 C           8.9311    0.9518    0.0000 C.ar    1  UNL1        0.0499
     28 C           8.9311   -0.0486    0.0000 C.ar    1  UNL1        0.0569
     29 C           9.7975    1.4521    0.0000 C.ar    1  UNL1       -0.0075
     30 C           8.0646    2.4526    0.0000 C.ar    1  UNL1        0.2023
     31 C           6.0310    4.1583    0.0000 C.3     1  UNL1        0.0790
     32 C           8.5245   -0.9518    0.0000 C.3     1  UNL1        0.0155
     33 C           8.9311    2.9528    0.0000 C.ar    1  UNL1        0.1656
     34 C           9.7975    2.4526    0.0000 C.ar    1  UNL1       -0.0083
     35 C           7.6581   -1.4521    0.0000 C.ar    1  UNL1       -0.0413
     36 C           5.9252   -2.4526    0.0000 C.ar    1  UNL1        0.1286
     37 C          10.6640    0.9518    0.0000 C.ar    1  UNL1       -0.0356
     38 C           6.7917   -0.9518    0.0000 C.ar    1  UNL1       -0.0547
     39 C           7.6581   -2.4526    0.0000 C.ar    1  UNL1       -0.0547
     40 C           5.9252   -1.4521    0.0000 C.ar    1  UNL1       -0.0191
     41 C           6.7917   -2.9528    0.0000 C.ar    1  UNL1       -0.0191
     42 C          10.6640   -0.0486    0.0000 C.ar    1  UNL1        0.0285
     43 C           2.4599   -4.4528    0.0000 C.3     1  UNL1        0.0790
     44 C           9.7971    4.4528    0.0000 C.3     1  UNL1        0.0790
     45 H           2.9235    0.6908    0.0000 H       1  UNL1        0.0515
     46 H           2.6540    3.0352    0.0000 H       1  UNL1        0.0430
     47 H           2.2554    2.3449    0.0000 H       1  UNL1        0.0430
     48 H           4.1310    3.4277    0.0000 H       1  UNL1        0.0326
     49 H           3.3339    3.4277    0.0000 H       1  UNL1        0.0326
     50 H           2.8964    0.4958    0.0000 H       1  UNL1        0.0332
     51 H           3.9321   -0.0815    0.0000 H       1  UNL1        0.0332
     52 H           5.4653    0.3318    0.0000 H       1  UNL1        0.0659
     53 H           1.6900    1.4890    0.0000 H       1  UNL1        0.0391
     54 H           1.4631    0.6421    0.0000 H       1  UNL1        0.0391
     55 H           2.3100    0.4151    0.0000 H       1  UNL1        0.0391
     56 H           5.4653    3.5728    0.0000 H       1  UNL1        0.0658
     57 H           4.7293   -1.1421    0.0000 H       1  UNL1        0.0658
     58 H           1.9225   -1.1421    0.0000 H       1  UNL1        0.0621
     59 H           1.9225   -2.7626    0.0000 H       1  UNL1        0.0655
     60 H           8.6526   -1.5585    0.0000 H       1  UNL1        0.0377
     61 H           8.0646   -0.5360    0.0000 H       1  UNL1        0.0377
     62 H           6.5060    4.5568    0.0000 H       1  UNL1        0.0660
     63 H           5.6325    4.6332    0.0000 H       1  UNL1        0.0660
     64 H           5.5561    3.7598    0.0000 H       1  UNL1        0.0660
     65 H          10.3345    2.7626    0.0000 H       1  UNL1        0.0661
     66 H          11.2009    1.2618    0.0000 H       1  UNL1        0.0639
     67 H           6.7917   -0.3318    0.0000 H       1  UNL1        0.0622
     68 H           8.1950   -2.7626    0.0000 H       1  UNL1        0.0622
     69 H           5.3883   -1.1421    0.0000 H       1  UNL1        0.0654
     70 H           6.7917   -3.5728    0.0000 H       1  UNL1        0.0654
     71 H          11.2009   -0.3586    0.0000 H       1  UNL1        0.0830
     72 H           8.1340    3.8666    0.0000 H       1  UNL1        0.2924
     73 H           2.1499   -3.9159    0.0000 H       1  UNL1        0.0660
     74 H           1.9230   -4.7628    0.0000 H       1  UNL1        0.0660
     75 H           2.7699   -4.9897    0.0000 H       1  UNL1        0.0660
     76 H          10.1071    3.9159    0.0000 H       1  UNL1        0.0660
     77 H          10.3340    4.7628    0.0000 H       1  UNL1        0.0660
     78 H           9.4871    4.9897    0.0000 H       1  UNL1        0.0660
@<TRIPOS>BOND
     1     1    19    1
     2     1    25    1
     3     2    20    1
     4     2    31    1
     5     3    23    1
     6     3    36    1
     7     4    26    1
     8     4    43    1
     9     5    30    1
    10     5    72    1
    11     6    33    1
    12     6    44    1
    13     7     9    1
    14     7    11    1
    15     7    16    1
    16     8    28   ar
    17     8    42   ar
    18     9    10    1
    19     9    14    1
    20     9    45    1
    21    10    13   ar
    22    10    15   ar
    23    11    12    1
    24    11    46    1
    25    11    47    1
    26    12    13    1
    27    12    48    1
    28    12    49    1
    29    13    17   ar
    30    14    18    1
    31    14    50    1
    32    14    51    1
    33    15    19   ar
    34    15    52    1
    35    16    53    1
    36    16    54    1
    37    16    55    1
    38    17    20   ar
    39    17    56    1
    40    18    21   ar
    41    18    22   ar
    42    19    20   ar
    43    21    23   ar
    44    21    57    1
    45    22    24   ar
    46    22    58    1
    47    23    26   ar
    48    24    26   ar
    49    24    59    1
    50    25    27   ar
    51    25    30   ar
    52    27    28   ar
    53    27    29   ar
    54    28    32    1
    55    29    34   ar
    56    29    37   ar
    57    30    33   ar
    58    31    62    1
    59    31    63    1
    60    31    64    1
    61    32    35    1
    62    32    60    1
    63    32    61    1
    64    33    34   ar
    65    34    65    1
    66    35    38   ar
    67    35    39   ar
    68    36    40   ar
    69    36    41   ar
    70    37    42   ar
    71    37    66    1
    72    38    40   ar
    73    38    67    1
    74    39    41   ar
    75    39    68    1
    76    40    69    1
    77    41    70    1
    78    42    71    1
    79    43    73    1
    80    43    74    1
    81    43    75    1
    82    44    76    1
    83    44    77    1
    84    44    78    1
