@<TRIPOS>MOLECULE
IMPHY010739
 38 43 0 0 0
SMALL
GASTEIGER

@<TRIPOS>ATOM
      1 C           0.0000   -2.3452    0.0000 C.3     1  UNL1        0.0018
      2 C           1.3138   -2.5785    0.0000 C.3     1  UNL1        0.0191
      3 C           0.8595   -3.8310    0.0000 C.3     1  UNL1        0.0018
      4 C           2.4557   -3.2416    0.0000 C.3     1  UNL1       -0.0174
      5 C           2.4557   -4.5677    0.0000 C.3     1  UNL1       -0.0039
      6 C           3.6099   -5.2307    0.0000 C.3     1  UNL1       -0.0005
      7 C           4.7641   -4.5677    0.0000 C.3     1  UNL1       -0.0009
      8 C           4.7641   -5.9061    0.0000 C.3     1  UNL1       -0.0002
      9 C           4.7641   -3.2416    0.0000 C.3     1  UNL1       -0.0192
     10 C           5.9183   -2.5785    0.0000 C.3     1  UNL1       -0.0015
     11 C           7.0603   -3.2416    0.0000 C.3     1  UNL1        0.0266
     12 C           6.9498   -4.8255    0.0000 C.3     1  UNL1        0.0899
     13 C           8.2145   -5.2307    0.0000 C.3     1  UNL1        0.0125
     14 C           9.3687   -4.5677    0.0000 C.3     1  UNL1        0.0013
     15 C          10.5106   -5.2307    0.0000 C.3     1  UNL1        0.0305
     16 C          11.8244   -5.4640    0.0000 C.3     1  UNL1        0.0026
     17 C          10.5106   -6.5691    0.0000 C.3     1  UNL1        0.0030
     18 C           9.3687   -7.2322    0.0000 C.3     1  UNL1        0.0092
     19 C           8.2145   -6.5691    0.0000 C.3     1  UNL1        0.0775
     20 C           6.9498   -6.9743    0.0000 C.3     1  UNL1        0.1485
     21 O           6.1639   -5.9061    0.0000 O.3     1  UNL1       -0.3584
     22 C           7.0603   -7.2322    0.0000 C.2     1  UNL1        0.1521
     23 C           5.9183   -6.5691    0.0000 C.3     1  UNL1        0.0668
     24 C           5.9183   -5.2307    0.0000 C.3     1  UNL1        0.0292
     25 C           5.9183   -3.9046    0.0000 C.3     1  UNL1        0.0027
     26 O           7.0603   -8.5583    0.0000 O.2     1  UNL1       -0.2960
     27 C          10.9649   -3.9906    0.0000 C.3     1  UNL1        0.1819
     28 O          12.2787   -3.7573    0.0000 O.3     1  UNL1       -0.2204
     29 H           8.0794   -3.9169    0.0000 H       1  UNL1        0.0345
     30 C           3.6099   -2.5785    0.0000 C.3     1  UNL1       -0.0066
     31 C           4.7641   -1.9155    0.0000 C.3     1  UNL1       -0.0006
     32 C           3.6099   -1.2524    0.0000 C.3     1  UNL1        0.0016
     33 C           2.4557   -0.5894    0.0000 C.3     1  UNL1        0.0264
     34 C           1.3138   -1.2524    0.0000 C.3     1  UNL1        0.1081
     35 O           0.8595    0.0000    0.0000 O.3     1  UNL1       -0.2299
     36 H           0.0000   -1.4857    0.0000 H       1  UNL1        0.0640
     37 H           3.6099   -3.9046    0.0000 H       1  UNL1        0.0318
     38 H           2.4557   -1.9155    0.0000 H       1  UNL1        0.0319
@<TRIPOS>BOND
     1     1     2    1
     2     2     3    1
     3     2     4    1
     4     2    34    1
     5     4     5    1
     6     4    30    1
     7     4    38    1
     8     5     6    1
     9     6     7    1
    10     7     8    1
    11     7     9    1
    12     7    24    1
    13     9    10    1
    14     9    30    1
    15     9    37    1
    16    10    11    1
    17    12    11    1
    18    12    13    1
    19    12    21    1
    20    12    24    1
    21    13    14    1
    22    13    19    1
    23    13    29    1
    24    14    15    1
    25    15    16    1
    26    15    17    1
    27    15    27    1
    28    17    18    1
    29    19    18    1
    30    19    20    1
    31    19    22    1
    32    20    21    1
    33    22    23    1
    34    22    26    2
    35    23    24    1
    36    24    25    1
    37    27    28    1
    38    30    31    1
    39    30    32    1
    40    32    33    1
    41    33    34    1
    42    34    35    1
    43    34    36    1
