@<TRIPOS>MOLECULE
IMPHY011477
 41 43 0 0 0
SMALL
GASTEIGER

@<TRIPOS>ATOM
      1 O           6.3580   -0.2699    0.0000 O.2     1  UNL1       -0.4543
      2 O           2.8660    1.7648    0.0000 O.3     1  UNL1       -0.4885
      3 O           2.8660   -0.2352    0.0000 O.3     1  UNL1       -0.4912
      4 O           4.5981    2.7648    0.0000 O.3     1  UNL1       -0.5027
      5 O           6.3465    2.7994    0.0000 O.2     1  UNL1       -0.2869
      6 O          10.7205   -1.7694    0.0000 O.3     1  UNL1       -0.4915
      7 O           8.9846   -2.7627    0.0000 O.3     1  UNL1       -0.5033
      8 C           5.4641    1.2648    0.0000 C.ar    1  UNL1        0.1091
      9 C           5.4641    0.2648    0.0000 C.ar    1  UNL1        0.1465
     10 C           7.2641    0.2440    0.0000 C.ar    1  UNL1        0.1393
     11 C           4.5981    1.7648    0.0000 C.ar    1  UNL1        0.1768
     12 C           6.3580    1.7994    0.0000 C.ar    1  UNL1        0.1967
     13 C           8.1282   -0.2594    0.0000 C.ar    1  UNL1        0.0211
     14 C           4.5981   -0.2352    0.0000 C.ar    1  UNL1        0.0270
     15 C           3.7320    1.2648    0.0000 C.ar    1  UNL1        0.2043
     16 C           7.2641    1.2856    0.0000 C.ar    1  UNL1        0.0288
     17 C           3.7320    0.2648    0.0000 C.ar    1  UNL1        0.1687
     18 C           8.1244   -1.2594    0.0000 C.ar    1  UNL1       -0.0059
     19 C           8.9962    0.2373    0.0000 C.ar    1  UNL1       -0.0474
     20 C           8.9884   -1.7627    0.0000 C.ar    1  UNL1        0.1591
     21 C           9.8602   -0.2661    0.0000 C.ar    1  UNL1       -0.0156
     22 C           9.8564   -1.2660    0.0000 C.ar    1  UNL1        0.1613
     23 C           2.0000    1.2648    0.0000 C.3     1  UNL1        0.0791
     24 C           2.8660   -1.2352    0.0000 C.3     1  UNL1        0.0790
     25 C          11.5884   -1.2727    0.0000 C.3     1  UNL1        0.0790
     26 H           4.5981   -0.8552    0.0000 H       1  UNL1        0.0692
     27 H           7.7998    1.5976    0.0000 H       1  UNL1        0.0693
     28 H           7.5862   -1.5673    0.0000 H       1  UNL1        0.0662
     29 H           8.9985    0.8573    0.0000 H       1  UNL1        0.0626
     30 H          10.3984    0.0419    0.0000 H       1  UNL1        0.0655
     31 H           4.0611    3.0748    0.0000 H       1  UNL1        0.2923
     32 H           1.6900    1.8017    0.0000 H       1  UNL1        0.0660
     33 H           1.4631    0.9548    0.0000 H       1  UNL1        0.0660
     34 H           2.3100    0.7278    0.0000 H       1  UNL1        0.0660
     35 H           2.2460   -1.2352    0.0000 H       1  UNL1        0.0660
     36 H           2.8660   -1.8552    0.0000 H       1  UNL1        0.0660
     37 H           3.4860   -1.2352    0.0000 H       1  UNL1        0.0660
     38 H           9.5203   -3.0748    0.0000 H       1  UNL1        0.2923
     39 H          11.8964   -1.8108    0.0000 H       1  UNL1        0.0660
     40 H          12.1266   -0.9648    0.0000 H       1  UNL1        0.0660
     41 H          11.2805   -0.7346    0.0000 H       1  UNL1        0.0660
@<TRIPOS>BOND
     1     1     9   ar
     2     1    10   ar
     3     2    15    1
     4     2    23    1
     5     3    17    1
     6     3    24    1
     7     4    11    1
     8     4    31    1
     9     5    12    2
    10     6    22    1
    11     6    25    1
    12     7    20    1
    13     7    38    1
    14     8     9   ar
    15     8    11   ar
    16     8    12   ar
    17     9    14   ar
    18    10    13    1
    19    10    16   ar
    20    11    15   ar
    21    12    16   ar
    22    13    18   ar
    23    13    19   ar
    24    14    17   ar
    25    14    26    1
    26    15    17   ar
    27    16    27    1
    28    18    20   ar
    29    18    28    1
    30    19    21   ar
    31    19    29    1
    32    20    22   ar
    33    21    22   ar
    34    21    30    1
    35    23    32    1
    36    23    33    1
    37    23    34    1
    38    24    35    1
    39    24    36    1
    40    24    37    1
    41    25    39    1
    42    25    40    1
    43    25    41    1
