@<TRIPOS>MOLECULE
IMPHY006411
 41 45 0 0 0
SMALL
GASTEIGER

@<TRIPOS>ATOM
      1 O           2.2314    0.2428    0.0000 O.3     1  UNL1       -0.4760
      2 O           2.0000   -2.2122    0.0000 O.2     1  UNL1       -0.4956
      3 O           2.0000    2.5922    0.0000 O.3     1  UNL1       -0.5033
      4 N           6.1607   -0.7611    0.0000 N.3     1  UNL1       -0.2984
      5 C           3.6897   -0.2855    0.0000 C.3     1  UNL1        0.0673
      6 C           4.5133   -0.7611    0.0000 C.2     1  UNL1       -0.0375
      7 C           5.3370   -0.2855    0.0000 C.3     1  UNL1        0.0366
      8 C           2.8660   -0.7611    0.0000 C.3     1  UNL1        0.1701
      9 C           4.2392    0.4119    0.0000 C.3     1  UNL1       -0.0227
     10 C           3.6897    0.6655    0.0000 C.ar    1  UNL1        0.0154
     11 C           5.3370    0.6655    0.0000 C.3     1  UNL1       -0.0078
     12 C           5.5918    0.4119    0.0000 C.3     1  UNL1        0.0004
     13 C           4.5133    1.1411    0.0000 C.ar    1  UNL1       -0.0377
     14 C           2.8660    1.1411    0.0000 C.ar    1  UNL1        0.1671
     15 C           2.8660   -1.7122    0.0000 C.2     1  UNL1        0.1388
     16 C           4.5133   -1.7122    0.0000 C.2     1  UNL1       -0.0568
     17 C           3.6897   -2.1877    0.0000 C.2     1  UNL1       -0.0204
     18 C           4.5133    2.0922    0.0000 C.ar    1  UNL1       -0.0545
     19 C           6.8418   -1.4932    0.0000 C.3     1  UNL1       -0.0122
     20 C           2.8660    2.0922    0.0000 C.ar    1  UNL1        0.1588
     21 C           3.6897    2.5677    0.0000 C.ar    1  UNL1       -0.0162
     22 C           2.0000   -3.2122    0.0000 C.3     1  UNL1        0.0785
     23 H           5.3377   -1.1355    0.0000 H       1  UNL1        0.0512
     24 H           2.0496   -0.9975    0.0000 H       1  UNL1        0.0828
     25 H           4.3760    1.0166    0.0000 H       1  UNL1        0.0290
     26 H           3.6796    0.6787    0.0000 H       1  UNL1        0.0290
     27 H           5.9476    0.5579    0.0000 H       1  UNL1        0.0332
     28 H           5.5490    1.2481    0.0000 H       1  UNL1        0.0332
     29 H           6.1840    0.5957    0.0000 H       1  UNL1        0.0427
     30 H           5.4989    1.0249    0.0000 H       1  UNL1        0.0427
     31 H           5.0503   -2.0222    0.0000 H       1  UNL1        0.0619
     32 H           3.6897   -2.8077    0.0000 H       1  UNL1        0.0652
     33 H           5.0503    2.4021    0.0000 H       1  UNL1        0.0622
     34 H           6.3879   -1.9155    0.0000 H       1  UNL1        0.0391
     35 H           7.2641   -1.9471    0.0000 H       1  UNL1        0.0391
     36 H           7.2957   -1.0709    0.0000 H       1  UNL1        0.0391
     37 H           3.6897    3.1877    0.0000 H       1  UNL1        0.0655
     38 H           2.0000    3.2122    0.0000 H       1  UNL1        0.2923
     39 H           1.3800   -3.2122    0.0000 H       1  UNL1        0.0660
     40 H           2.0000   -3.8322    0.0000 H       1  UNL1        0.0660
     41 H           2.6200   -3.2122    0.0000 H       1  UNL1        0.0660
@<TRIPOS>BOND
     1     1     8    1
     2     1    14    1
     3     2    15    1
     4     2    22    1
     5     3    20    1
     6     3    38    1
     7     4     7    1
     8     4    12    1
     9     4    19    1
    10     5     6    1
    11     5     8    1
    12     5     9    1
    13     5    10    1
    14     6     7    1
    15     6    16    2
    16     7    11    1
    17     7    23    1
    18     8    15    1
    19     8    24    1
    20     9    12    1
    21     9    25    1
    22     9    26    1
    23    10    13   ar
    24    10    14   ar
    25    11    13    1
    26    11    27    1
    27    11    28    1
    28    12    29    1
    29    12    30    1
    30    13    18   ar
    31    14    20   ar
    32    15    17    2
    33    16    17    1
    34    16    31    1
    35    17    32    1
    36    18    21   ar
    37    18    33    1
    38    19    34    1
    39    19    35    1
    40    19    36    1
    41    20    21   ar
    42    21    37    1
    43    22    39    1
    44    22    40    1
    45    22    41    1
