@<TRIPOS>MOLECULE
IMPHY004459
 72 76 0 0 0
SMALL
GASTEIGER

@<TRIPOS>ATOM
      1 O          10.7744    3.2725    0.0000 O.3     1  UNL1       -0.4910
      2 O           7.2346    3.2589    0.0000 O.3     1  UNL1       -0.4907
      3 O           9.0005    4.2967    0.0000 O.3     1  UNL1       -0.4885
      4 O           4.5923   -0.2967    0.0000 O.3     1  UNL1       -0.4515
      5 O           4.5923    1.7516    0.0000 O.3     1  UNL1       -0.4914
      6 O           6.3359   -3.2900    0.0000 O.3     1  UNL1       -0.4913
      7 O           4.6077   -4.2967    0.0000 O.3     1  UNL1       -0.4914
      8 O           2.0000   -1.8067    0.0000 O.2     1  UNL1       -0.2956
      9 N           9.8466   -0.2695    0.0000 N.3     1  UNL1       -0.2978
     10 C           8.9884    0.2274    0.0000 C.3     1  UNL1        0.0404
     11 C           8.9884    1.2274    0.0000 C.ar    1  UNL1       -0.0119
     12 C           8.1224   -0.2726    0.0000 C.3     1  UNL1       -0.0072
     13 C           9.8984    1.7343    0.0000 C.ar    1  UNL1        0.0046
     14 C          10.7121    0.2147    0.0000 C.3     1  UNL1        0.0033
     15 C           8.1224    1.7274    0.0000 C.ar    1  UNL1        0.0330
     16 C          10.7377    1.2060    0.0000 C.3     1  UNL1       -0.0109
     17 C           7.2564    0.2274    0.0000 C.ar    1  UNL1       -0.0340
     18 C           7.2564    1.2274    0.0000 C.ar    1  UNL1       -0.0070
     19 C           9.9065    2.7759    0.0000 C.ar    1  UNL1        0.1687
     20 C           8.1063    2.7689    0.0000 C.ar    1  UNL1        0.1732
     21 C           9.8392   -1.2695    0.0000 C.3     1  UNL1       -0.0122
     22 C           9.0044    3.2967    0.0000 C.ar    1  UNL1        0.2044
     23 C           6.3624   -0.3072    0.0000 C.ar    1  UNL1       -0.0119
     24 C           6.3624    1.7621    0.0000 C.ar    1  UNL1       -0.0082
     25 C           5.4564    0.2066    0.0000 C.ar    1  UNL1        0.1701
     26 C           5.4564    1.2482    0.0000 C.ar    1  UNL1        0.1627
     27 C          10.7783    4.2725    0.0000 C.3     1  UNL1        0.0790
     28 C           7.2230    4.2588    0.0000 C.3     1  UNL1        0.0790
     29 C           9.8646    4.8000    0.0000 C.3     1  UNL1        0.0791
     30 C           4.5961   -1.2967    0.0000 C.ar    1  UNL1        0.1425
     31 C           4.5961    2.7516    0.0000 C.3     1  UNL1        0.0790
     32 C           3.7320   -1.8000    0.0000 C.ar    1  UNL1        0.0601
     33 C           5.4641   -1.7934    0.0000 C.ar    1  UNL1        0.0267
     34 C           5.4679   -2.7934    0.0000 C.ar    1  UNL1        0.1650
     35 C           3.7359   -2.8000    0.0000 C.ar    1  UNL1       -0.0026
     36 C           4.6038   -3.2967    0.0000 C.ar    1  UNL1        0.1624
     37 C           2.8641   -1.3034    0.0000 C.2     1  UNL1        0.1538
     38 C           6.3397   -4.2900    0.0000 C.3     1  UNL1        0.0790
     39 C           3.7436   -4.8000    0.0000 C.3     1  UNL1        0.0790
     40 H           8.9879   -0.6226    0.0000 H       1  UNL1        0.0516
     41 H           7.7239   -0.7475    0.0000 H       1  UNL1        0.0332
     42 H           8.5209   -0.7475    0.0000 H       1  UNL1        0.0332
     43 H          10.9139   -0.3716    0.0000 H       1  UNL1        0.0430
     44 H          11.3249    0.3090    0.0000 H       1  UNL1        0.0430
     45 H          11.3448    1.0802    0.0000 H       1  UNL1        0.0327
     46 H          10.9695    1.7811    0.0000 H       1  UNL1        0.0327
     47 H           9.2193   -1.2649    0.0000 H       1  UNL1        0.0391
     48 H           9.8347   -1.8894    0.0000 H       1  UNL1        0.0391
     49 H          10.4592   -1.2741    0.0000 H       1  UNL1        0.0391
     50 H           6.3696   -0.9272    0.0000 H       1  UNL1        0.0658
     51 H           6.3696    2.3820    0.0000 H       1  UNL1        0.0661
     52 H          11.3983    4.2701    0.0000 H       1  UNL1        0.0660
     53 H          10.7806    4.8925    0.0000 H       1  UNL1        0.0660
     54 H          10.1583    4.2749    0.0000 H       1  UNL1        0.0660
     55 H           7.8430    4.2660    0.0000 H       1  UNL1        0.0660
     56 H           7.2159    4.8788    0.0000 H       1  UNL1        0.0660
     57 H           6.6031    4.2517    0.0000 H       1  UNL1        0.0660
     58 H          10.1767    4.2643    0.0000 H       1  UNL1        0.0660
     59 H          10.4004    5.1121    0.0000 H       1  UNL1        0.0660
     60 H           9.5526    5.3358    0.0000 H       1  UNL1        0.0660
     61 H           5.2161    2.7492    0.0000 H       1  UNL1        0.0660
     62 H           4.5985    3.3716    0.0000 H       1  UNL1        0.0660
     63 H           3.9761    2.7540    0.0000 H       1  UNL1        0.0660
     64 H           5.9998   -1.4813    0.0000 H       1  UNL1        0.0692
     65 H           3.2002   -3.1121    0.0000 H       1  UNL1        0.0663
     66 H           2.8617   -0.6834    0.0000 H       1  UNL1        0.1083
     67 H           5.7197   -4.2924    0.0000 H       1  UNL1        0.0660
     68 H           6.3421   -4.9100    0.0000 H       1  UNL1        0.0660
     69 H           6.9597   -4.2876    0.0000 H       1  UNL1        0.0660
     70 H           3.4315   -4.2643    0.0000 H       1  UNL1        0.0660
     71 H           3.2079   -5.1121    0.0000 H       1  UNL1        0.0660
     72 H           4.0557   -5.3358    0.0000 H       1  UNL1        0.0660
@<TRIPOS>BOND
     1     1    19    1
     2     1    27    1
     3     2    20    1
     4     2    28    1
     5     3    22    1
     6     3    29    1
     7     4    25    1
     8     4    30    1
     9     5    26    1
    10     5    31    1
    11     6    34    1
    12     6    38    1
    13     7    36    1
    14     7    39    1
    15     8    37    2
    16     9    10    1
    17     9    14    1
    18     9    21    1
    19    10    11    1
    20    10    12    1
    21    10    40    1
    22    11    13   ar
    23    11    15   ar
    24    12    17    1
    25    12    41    1
    26    12    42    1
    27    13    16    1
    28    13    19   ar
    29    14    16    1
    30    14    43    1
    31    14    44    1
    32    15    18    1
    33    15    20   ar
    34    16    45    1
    35    16    46    1
    36    17    18   ar
    37    17    23   ar
    38    18    24   ar
    39    19    22   ar
    40    20    22   ar
    41    21    47    1
    42    21    48    1
    43    21    49    1
    44    23    25   ar
    45    23    50    1
    46    24    26   ar
    47    24    51    1
    48    25    26   ar
    49    27    52    1
    50    27    53    1
    51    27    54    1
    52    28    55    1
    53    28    56    1
    54    28    57    1
    55    29    58    1
    56    29    59    1
    57    29    60    1
    58    30    32   ar
    59    30    33   ar
    60    31    61    1
    61    31    62    1
    62    31    63    1
    63    32    35   ar
    64    32    37    1
    65    33    34   ar
    66    33    64    1
    67    34    36   ar
    68    35    36   ar
    69    35    65    1
    70    37    66    1
    71    38    67    1
    72    38    68    1
    73    38    69    1
    74    39    70    1
    75    39    71    1
    76    39    72    1
