@<TRIPOS>MOLECULE
IMPHY012645
 26 26 0 0 0
SMALL
GASTEIGER

@<TRIPOS>ATOM
      1 O           2.8660   -1.0000    0.0000 O.3     1  UNL1       -0.4930
      2 O           5.4641    1.5000    0.0000 O.2     1  UNL1       -0.4819
      3 N           4.5981    0.0000    0.0000 N.2     1  UNL1       -0.2165
      4 C           4.5981   -1.0000    0.0000 C.ar    1  UNL1        0.1086
      5 C           3.7320   -1.5000    0.0000 C.ar    1  UNL1        0.1454
      6 C           5.4641   -1.5000    0.0000 C.ar    1  UNL1       -0.0326
      7 C           3.7320   -2.5000    0.0000 C.ar    1  UNL1       -0.0178
      8 C           5.4641   -2.5000    0.0000 C.ar    1  UNL1       -0.0595
      9 C           4.5981   -3.0000    0.0000 C.ar    1  UNL1       -0.0582
     10 C           6.3301    2.0000    0.0000 C.3     1  UNL1        0.0878
     11 C           6.3301    3.0000    0.0000 C.3     1  UNL1       -0.0306
     12 C           5.4641    0.5000    0.0000 C.2     1  UNL1        0.1760
     13 C           2.0000   -1.5000    0.0000 C.3     1  UNL1        0.0789
     14 H           6.0010   -1.1900    0.0000 H       1  UNL1        0.0640
     15 H           3.1951   -2.8100    0.0000 H       1  UNL1        0.0655
     16 H           6.0010   -2.8100    0.0000 H       1  UNL1        0.0618
     17 H           4.5981   -3.6200    0.0000 H       1  UNL1        0.0619
     18 H           6.5422    1.4174    0.0000 H       1  UNL1        0.0694
     19 H           6.9407    2.1077    0.0000 H       1  UNL1        0.0694
     20 H           6.9501    3.0000    0.0000 H       1  UNL1        0.0262
     21 H           6.3301    3.6200    0.0000 H       1  UNL1        0.0262
     22 H           5.7101    3.0000    0.0000 H       1  UNL1        0.0262
     23 H           6.0010    0.1900    0.0000 H       1  UNL1        0.1250
     24 H           1.6900   -0.9631    0.0000 H       1  UNL1        0.0660
     25 H           1.4631   -1.8100    0.0000 H       1  UNL1        0.0660
     26 H           2.3100   -2.0369    0.0000 H       1  UNL1        0.0660
@<TRIPOS>BOND
     1     1     5    1
     2     1    13    1
     3     2    10    1
     4     2    12    1
     5     3     4    1
     6     3    12    2
     7     4     5   ar
     8     4     6   ar
     9     5     7   ar
    10     6     8   ar
    11     6    14    1
    12     7     9   ar
    13     7    15    1
    14     8     9   ar
    15     8    16    1
    16     9    17    1
    17    10    11    1
    18    10    18    1
    19    10    19    1
    20    11    20    1
    21    11    21    1
    22    11    22    1
    23    12    23    1
    24    13    24    1
    25    13    25    1
    26    13    26    1
