@<TRIPOS>MOLECULE
IMPHY008712
 173 183 0 0 0
SMALL
GASTEIGER

@<TRIPOS>ATOM
      1 O          17.8164    7.0403    0.0000 O.3     1  UNL1       -0.3448
      2 O          16.0440    7.9351    0.0000 O.3     1  UNL1       -0.3480
      3 O          16.3933   -1.2038    0.0000 O.3     1  UNL1       -0.3451
      4 O          14.6613   -1.2038    0.0000 O.3     1  UNL1       -0.3405
      5 O          16.3933   -3.2038    0.0000 O.3     1  UNL1       -0.3841
      6 O          14.6613   -4.2038    0.0000 O.3     1  UNL1       -0.3864
      7 O          12.9292   -3.2038    0.0000 O.3     1  UNL1       -0.3401
      8 O          12.9292   -0.2037    0.0000 O.3     1  UNL1       -0.3924
      9 O          12.0632   -1.7038    0.0000 O.3     1  UNL1       -0.3431
     10 O          11.1972   -4.2038    0.0000 O.3     1  UNL1       -0.3841
     11 O           9.4651   -3.2038    0.0000 O.3     1  UNL1       -0.3864
     12 O           9.4651   -1.2038    0.0000 O.3     1  UNL1       -0.3402
     13 O           8.5991   -2.7038    0.0000 O.3     1  UNL1       -0.3431
     14 O           7.7331   -0.2037    0.0000 O.3     1  UNL1       -0.3841
     15 O           6.0010   -3.2038    0.0000 O.3     1  UNL1       -0.3402
     16 O           6.0010   -1.2038    0.0000 O.3     1  UNL1       -0.3864
     17 O           6.8671   -4.7038    0.0000 O.3     1  UNL1       -0.3431
     18 O           6.0010   -7.2038    0.0000 O.3     1  UNL1       -0.3402
     19 O           4.2690   -4.2038    0.0000 O.3     1  UNL1       -0.3841
     20 O           4.2690   -6.2038    0.0000 O.3     1  UNL1       -0.3864
     21 O           4.2690   -7.2038    0.0000 O.3     1  UNL1       -0.3431
     22 O           6.0010   -9.2038    0.0000 O.3     1  UNL1       -0.3841
     23 O           4.2690  -10.2037    0.0000 O.3     1  UNL1       -0.3864
     24 O           2.5369   -9.2038    0.0000 O.3     1  UNL1       -0.3866
     25 C          16.4226    4.9931    0.0000 C.3     1  UNL1       -0.0233
     26 C          17.2905    4.4965    0.0000 C.3     1  UNL1       -0.0295
     27 C          16.6281    5.9657    0.0000 C.3     1  UNL1       -0.0015
     28 C          17.2944    3.4965    0.0000 C.3     1  UNL1       -0.0306
     29 C          17.6164    6.0726    0.0000 C.3     1  UNL1        0.0660
     30 C          16.4303    2.9931    0.0000 C.3     1  UNL1       -0.0285
     31 C          18.0250    5.1664    0.0000 C.3     1  UNL1       -0.0226
     32 C          15.5585    4.4898    0.0000 C.3     1  UNL1       -0.0467
     33 C          16.2258    6.8683    0.0000 C.3     1  UNL1        0.0160
     34 C          15.5624    3.4898    0.0000 C.3     1  UNL1       -0.0486
     35 C          16.4183    1.9516    0.0000 C.3     1  UNL1       -0.0078
     36 C          16.9587    7.5311    0.0000 C.3     1  UNL1        0.1732
     37 C          15.5547    5.4898    0.0000 C.3     1  UNL1       -0.0590
     38 C          18.2064    2.9931    0.0000 C.3     1  UNL1       -0.0311
     39 C          17.3183    1.4273    0.0000 C.2     1  UNL1       -0.0648
     40 C          15.4684    1.4273    0.0000 C.3     1  UNL1       -0.0413
     41 C          15.2474    7.0750    0.0000 C.3     1  UNL1       -0.0572
     42 C          17.7660    8.1213    0.0000 C.3     1  UNL1        0.0020
     43 C          18.2184    1.9516    0.0000 C.2     1  UNL1       -0.0839
     44 C          15.5542    2.4549    0.0000 C.3     1  UNL1       -0.0556
     45 C          17.3309    0.3424    0.0000 C.3     1  UNL1       -0.0047
     46 C          15.4558    0.3424    0.0000 C.3     1  UNL1       -0.0254
     47 C          16.3933   -0.2037    0.0000 C.3     1  UNL1        0.0655
     48 C          17.6585    9.1155    0.0000 C.3     1  UNL1       -0.0435
     49 C          16.7437    9.5195    0.0000 C.3     1  UNL1       -0.0201
     50 C          15.9365    8.9293    0.0000 C.3     1  UNL1        0.0535
     51 C          16.6362   10.5137    0.0000 C.3     1  UNL1       -0.0603
     52 C          15.5273   -1.7038    0.0000 C.3     1  UNL1        0.1882
     53 C          15.5273   -2.7038    0.0000 C.3     1  UNL1        0.1341
     54 C          14.6613   -3.2038    0.0000 C.3     1  UNL1        0.1144
     55 C          13.7953   -1.7038    0.0000 C.3     1  UNL1        0.1134
     56 C          13.7953   -2.7038    0.0000 C.3     1  UNL1        0.1184
     57 C          12.9292   -1.2038    0.0000 C.3     1  UNL1        0.0730
     58 C          12.0632   -2.7038    0.0000 C.3     1  UNL1        0.1883
     59 C          11.1972   -3.2038    0.0000 C.3     1  UNL1        0.1341
     60 C          10.3312   -2.7038    0.0000 C.3     1  UNL1        0.1143
     61 C          11.1972   -1.2038    0.0000 C.3     1  UNL1        0.0877
     62 C          10.3312   -1.7038    0.0000 C.3     1  UNL1        0.1160
     63 C          11.1972   -0.2037    0.0000 C.3     1  UNL1       -0.0361
     64 C           8.5991   -1.7038    0.0000 C.3     1  UNL1        0.1883
     65 C           7.7331   -1.2038    0.0000 C.3     1  UNL1        0.1341
     66 C           6.8671   -1.7038    0.0000 C.3     1  UNL1        0.1143
     67 C           6.8671   -2.7038    0.0000 C.3     1  UNL1        0.1160
     68 C           7.7331   -3.2038    0.0000 C.3     1  UNL1        0.0877
     69 C           7.7331   -4.2038    0.0000 C.3     1  UNL1       -0.0361
     70 C           6.0010   -4.2038    0.0000 C.3     1  UNL1        0.1883
     71 C           5.1350   -4.7038    0.0000 C.3     1  UNL1        0.1341
     72 C           5.1350   -5.7038    0.0000 C.3     1  UNL1        0.1143
     73 C           6.0010   -6.2038    0.0000 C.3     1  UNL1        0.1160
     74 C           6.8671   -5.7038    0.0000 C.3     1  UNL1        0.0877
     75 C           5.1350   -7.7038    0.0000 C.3     1  UNL1        0.1883
     76 C           7.7331   -6.2038    0.0000 C.3     1  UNL1       -0.0361
     77 C           5.1350   -8.7038    0.0000 C.3     1  UNL1        0.1341
     78 C           4.2690   -9.2038    0.0000 C.3     1  UNL1        0.1140
     79 C           3.4030   -8.7038    0.0000 C.3     1  UNL1        0.1095
     80 C           3.4030   -7.7038    0.0000 C.3     1  UNL1        0.0873
     81 C           2.5369   -7.2038    0.0000 C.3     1  UNL1       -0.0361
     82 H          17.8582    4.2472    0.0000 H       1  UNL1        0.0310
     83 H          16.0115    5.9004    0.0000 H       1  UNL1        0.0335
     84 H          17.8277    3.8127    0.0000 H       1  UNL1        0.0310
     85 H          18.2326    6.1406    0.0000 H       1  UNL1        0.0600
     86 H          16.9660    2.6811    0.0000 H       1  UNL1        0.0312
     87 H          18.3924    4.6670    0.0000 H       1  UNL1        0.0293
     88 H          18.5603    5.4792    0.0000 H       1  UNL1        0.0293
     89 H          15.3442    5.0716    0.0000 H       1  UNL1        0.0271
     90 H          14.9483    4.3798    0.0000 H       1  UNL1        0.0271
     91 H          16.0643    7.4669    0.0000 H       1  UNL1        0.0354
     92 H          14.9514    3.5951    0.0000 H       1  UNL1        0.0268
     93 H          15.3526    2.9064    0.0000 H       1  UNL1        0.0268
     94 H          15.8626    6.0279    0.0000 H       1  UNL1        0.0235
     95 H          15.0165    5.7977    0.0000 H       1  UNL1        0.0235
     96 H          15.2467    4.9517    0.0000 H       1  UNL1        0.0235
     97 H          18.8184    2.8941    0.0000 H       1  UNL1        0.0310
     98 H          18.4086    3.5792    0.0000 H       1  UNL1        0.0310
     99 H          15.2661    2.0134    0.0000 H       1  UNL1        0.0274
    100 H          14.8563    1.3283    0.0000 H       1  UNL1        0.0274
    101 H          15.3755    7.6816    0.0000 H       1  UNL1        0.0234
    102 H          14.6407    7.2032    0.0000 H       1  UNL1        0.0234
    103 H          15.1192    6.4684    0.0000 H       1  UNL1        0.0234
    104 H          18.0394    7.5649    0.0000 H       1  UNL1        0.0317
    105 H          18.3615    8.2940    0.0000 H       1  UNL1        0.0317
    106 H          18.7577    1.6457    0.0000 H       1  UNL1        0.0572
    107 H          15.8662    2.9906    0.0000 H       1  UNL1        0.0238
    108 H          15.0184    2.7670    0.0000 H       1  UNL1        0.0238
    109 H          15.2421    1.9192    0.0000 H       1  UNL1        0.0238
    110 H          17.5467   -0.2389    0.0000 H       1  UNL1        0.0335
    111 H          17.9405    0.4555    0.0000 H       1  UNL1        0.0335
    112 H          14.8462    0.4555    0.0000 H       1  UNL1        0.0290
    113 H          15.2400   -0.2389    0.0000 H       1  UNL1        0.0290
    114 H          16.9309   -0.5127    0.0000 H       1  UNL1        0.0600
    115 H          18.2771    9.0741    0.0000 H       1  UNL1        0.0270
    116 H          17.8067    9.7176    0.0000 H       1  UNL1        0.0270
    117 H          17.2442    9.8855    0.0000 H       1  UNL1        0.0320
    118 H          15.6630    9.4858    0.0000 H       1  UNL1        0.0563
    119 H          15.3410    8.7567    0.0000 H       1  UNL1        0.0563
    120 H          17.2526   10.5804    0.0000 H       1  UNL1        0.0233
    121 H          16.5696   11.1302    0.0000 H       1  UNL1        0.0233
    122 H          16.0198   10.4471    0.0000 H       1  UNL1        0.0233
    123 H          15.5273   -1.0838    0.0000 H       1  UNL1        0.0937
    124 H          15.5273   -3.3238    0.0000 H       1  UNL1        0.0671
    125 H          15.1982   -3.5138    0.0000 H       1  UNL1        0.0648
    126 H          13.7953   -1.0838    0.0000 H       1  UNL1        0.0647
    127 H          13.7953   -3.3238    0.0000 H       1  UNL1        0.0651
    128 H          16.9303   -2.8938    0.0000 H       1  UNL1        0.2101
    129 H          12.3187   -1.0961    0.0000 H       1  UNL1        0.0584
    130 H          12.7172   -1.7864    0.0000 H       1  UNL1        0.0584
    131 H          15.1982   -4.5138    0.0000 H       1  UNL1        0.2100
    132 H          12.0632   -3.3238    0.0000 H       1  UNL1        0.0938
    133 H          12.3923    0.1063    0.0000 H       1  UNL1        0.2095
    134 H          10.6603   -3.5138    0.0000 H       1  UNL1        0.0671
    135 H           9.7942   -2.3938    0.0000 H       1  UNL1        0.0648
    136 H          11.7341   -0.8937    0.0000 H       1  UNL1        0.0621
    137 H          10.3312   -1.0838    0.0000 H       1  UNL1        0.0650
    138 H          11.7341   -4.5138    0.0000 H       1  UNL1        0.2101
    139 H          11.8172   -0.2037    0.0000 H       1  UNL1        0.0255
    140 H          11.1972    0.4163    0.0000 H       1  UNL1        0.0255
    141 H          10.5772   -0.2037    0.0000 H       1  UNL1        0.0255
    142 H           9.4651   -3.8238    0.0000 H       1  UNL1        0.2100
    143 H           8.5991   -1.0838    0.0000 H       1  UNL1        0.0938
    144 H           7.1962   -0.8937    0.0000 H       1  UNL1        0.0671
    145 H           7.4040   -2.0138    0.0000 H       1  UNL1        0.0648
    146 H           6.8671   -3.3238    0.0000 H       1  UNL1        0.0650
    147 H           8.2700   -3.5138    0.0000 H       1  UNL1        0.0621
    148 H           7.1962    0.1063    0.0000 H       1  UNL1        0.2101
    149 H           7.1131   -4.2038    0.0000 H       1  UNL1        0.0255
    150 H           7.7331   -4.8238    0.0000 H       1  UNL1        0.0255
    151 H           8.3531   -4.2038    0.0000 H       1  UNL1        0.0255
    152 H           5.4641   -3.8938    0.0000 H       1  UNL1        0.0938
    153 H           5.4641   -1.5138    0.0000 H       1  UNL1        0.2100
    154 H           4.5981   -5.0138    0.0000 H       1  UNL1        0.0671
    155 H           5.4641   -6.5138    0.0000 H       1  UNL1        0.0650
    156 H           4.5981   -5.3938    0.0000 H       1  UNL1        0.0648
    157 H           7.4040   -5.3938    0.0000 H       1  UNL1        0.0621
    158 H           5.6720   -8.0138    0.0000 H       1  UNL1        0.0938
    159 H           7.4231   -6.7407    0.0000 H       1  UNL1        0.0255
    160 H           8.2700   -6.5138    0.0000 H       1  UNL1        0.0255
    161 H           8.0431   -5.6668    0.0000 H       1  UNL1        0.0255
    162 H           5.1350   -9.3238    0.0000 H       1  UNL1        0.0671
    163 H           3.7320   -9.5138    0.0000 H       1  UNL1        0.0648
    164 H           4.2690   -3.5838    0.0000 H       1  UNL1        0.2101
    165 H           3.4030   -9.3238    0.0000 H       1  UNL1        0.0646
    166 H           3.4030   -7.0838    0.0000 H       1  UNL1        0.0621
    167 H           3.7320   -5.8938    0.0000 H       1  UNL1        0.2100
    168 H           2.8469   -6.6668    0.0000 H       1  UNL1        0.0255
    169 H           2.0000   -6.8938    0.0000 H       1  UNL1        0.0255
    170 H           2.2269   -7.7407    0.0000 H       1  UNL1        0.0255
    171 H           6.0010   -9.8238    0.0000 H       1  UNL1        0.2101
    172 H           3.7320  -10.5137    0.0000 H       1  UNL1        0.2100
    173 H           2.0000   -8.8938    0.0000 H       1  UNL1        0.2100
@<TRIPOS>BOND
     1     1    29    1
     2    36     1    1
     3     2    36    1
     4     2    50    1
     5     3    47    1
     6     3    52    1
     7     4    52    1
     8     4    55    1
     9     5    53    1
    10     5   128    1
    11     6    54    1
    12     6   131    1
    13     7    56    1
    14     7    58    1
    15     8    57    1
    16     8   133    1
    17     9    58    1
    18     9    61    1
    19    10    59    1
    20    10   138    1
    21    11    60    1
    22    11   142    1
    23    12    62    1
    24    12    64    1
    25    13    64    1
    26    13    68    1
    27    14    65    1
    28    14   148    1
    29    15    67    1
    30    15    70    1
    31    16    66    1
    32    16   153    1
    33    17    70    1
    34    17    74    1
    35    18    73    1
    36    18    75    1
    37    19    71    1
    38    19   164    1
    39    20    72    1
    40    20   167    1
    41    21    75    1
    42    21    80    1
    43    22    77    1
    44    22   171    1
    45    23    78    1
    46    23   172    1
    47    24    79    1
    48    24   173    1
    49    25    26    1
    50    25    27    1
    51    25    32    1
    52    25    37    1
    53    26    28    1
    54    26    31    1
    55    26    82    1
    56    27    29    1
    57    27    33    1
    58    27    83    1
    59    28    30    1
    60    28    38    1
    61    28    84    1
    62    29    31    1
    63    29    85    1
    64    30    34    1
    65    30    35    1
    66    30    86    1
    67    31    87    1
    68    31    88    1
    69    32    34    1
    70    32    89    1
    71    32    90    1
    72    33    36    1
    73    33    41    1
    74    33    91    1
    75    34    92    1
    76    34    93    1
    77    35    39    1
    78    35    40    1
    79    35    44    1
    80    36    42    1
    81    37    94    1
    82    37    95    1
    83    37    96    1
    84    38    43    1
    85    38    97    1
    86    38    98    1
    87    39    43    2
    88    39    45    1
    89    40    46    1
    90    40    99    1
    91    40   100    1
    92    41   101    1
    93    41   102    1
    94    41   103    1
    95    42    48    1
    96    42   104    1
    97    42   105    1
    98    43   106    1
    99    44   107    1
   100    44   108    1
   101    44   109    1
   102    45    47    1
   103    45   110    1
   104    45   111    1
   105    46    47    1
   106    46   112    1
   107    46   113    1
   108    47   114    1
   109    48    49    1
   110    48   115    1
   111    48   116    1
   112    49    50    1
   113    49    51    1
   114    49   117    1
   115    50   118    1
   116    50   119    1
   117    51   120    1
   118    51   121    1
   119    51   122    1
   120    52    53    1
   121    52   123    1
   122    53    54    1
   123    53   124    1
   124    54    56    1
   125    54   125    1
   126    55    56    1
   127    55    57    1
   128    55   126    1
   129    56   127    1
   130    57   129    1
   131    57   130    1
   132    58    59    1
   133    58   132    1
   134    59    60    1
   135    59   134    1
   136    60    62    1
   137    60   135    1
   138    61    62    1
   139    61    63    1
   140    61   136    1
   141    62   137    1
   142    63   139    1
   143    63   140    1
   144    63   141    1
   145    64    65    1
   146    64   143    1
   147    65    66    1
   148    65   144    1
   149    66    67    1
   150    66   145    1
   151    67    68    1
   152    67   146    1
   153    68    69    1
   154    68   147    1
   155    69   149    1
   156    69   150    1
   157    69   151    1
   158    70    71    1
   159    70   152    1
   160    71    72    1
   161    71   154    1
   162    72    73    1
   163    72   156    1
   164    73    74    1
   165    73   155    1
   166    74    76    1
   167    74   157    1
   168    75    77    1
   169    75   158    1
   170    76   159    1
   171    76   160    1
   172    76   161    1
   173    77    78    1
   174    77   162    1
   175    78    79    1
   176    78   163    1
   177    79    80    1
   178    79   165    1
   179    80    81    1
   180    80   166    1
   181    81   168    1
   182    81   169    1
   183    81   170    1
