@<TRIPOS>MOLECULE
IMPHY016808
 27 27 0 0 0
SMALL
GASTEIGER

@<TRIPOS>ATOM
      1 O           2.0000    1.1550    0.0000 O.2     1  UNL1       -0.2921
      2 O           2.8660   -3.3450    0.0000 O.3     1  UNL1       -0.5068
      3 C           3.7320    2.1550    0.0000 C.3     1  UNL1       -0.0463
      4 C           3.7320    1.1550    0.0000 C.3     1  UNL1        0.0104
      5 C           4.5981    2.6550    0.0000 C.3     1  UNL1       -0.0555
      6 C           2.8660    0.6550    0.0000 C.2     1  UNL1        0.1632
      7 C           2.8660   -0.3450    0.0000 C.ar    1  UNL1        0.0176
      8 C           4.5981    3.6550    0.0000 C.3     1  UNL1       -0.0653
      9 C           3.7320   -0.8450    0.0000 C.ar    1  UNL1       -0.0478
     10 C           2.0000   -0.8450    0.0000 C.ar    1  UNL1       -0.0478
     11 C           3.7320   -1.8450    0.0000 C.ar    1  UNL1       -0.0195
     12 C           2.0000   -1.8450    0.0000 C.ar    1  UNL1       -0.0195
     13 C           2.8660   -2.3450    0.0000 C.ar    1  UNL1        0.1169
     14 H           3.5200    2.7376    0.0000 H       1  UNL1        0.0269
     15 H           3.1215    2.0473    0.0000 H       1  UNL1        0.0269
     16 H           3.9441    0.5724    0.0000 H       1  UNL1        0.0345
     17 H           4.3426    1.2627    0.0000 H       1  UNL1        0.0345
     18 H           4.8101    2.0724    0.0000 H       1  UNL1        0.0263
     19 H           5.2087    2.7627    0.0000 H       1  UNL1        0.0263
     20 H           5.2181    3.6550    0.0000 H       1  UNL1        0.0230
     21 H           4.5981    4.2750    0.0000 H       1  UNL1        0.0230
     22 H           3.9781    3.6550    0.0000 H       1  UNL1        0.0230
     23 H           4.2690   -0.5350    0.0000 H       1  UNL1        0.0626
     24 H           1.4631   -0.5350    0.0000 H       1  UNL1        0.0626
     25 H           4.2690   -2.1550    0.0000 H       1  UNL1        0.0654
     26 H           1.4631   -2.1550    0.0000 H       1  UNL1        0.0654
     27 H           2.3291   -3.6550    0.0000 H       1  UNL1        0.2921
@<TRIPOS>BOND
     1     1     6    2
     2     2    13    1
     3     2    27    1
     4     3     4    1
     5     3     5    1
     6     3    14    1
     7     3    15    1
     8     4     6    1
     9     4    16    1
    10     4    17    1
    11     5     8    1
    12     5    18    1
    13     5    19    1
    14     6     7    1
    15     7     9   ar
    16     7    10   ar
    17     8    20    1
    18     8    21    1
    19     8    22    1
    20     9    11   ar
    21     9    23    1
    22    10    12   ar
    23    10    24    1
    24    11    13   ar
    25    11    25    1
    26    12    13   ar
    27    12    26    1
