@<TRIPOS>MOLECULE
IMPHY015337
 19 18 0 0 0
SMALL
GASTEIGER

@<TRIPOS>ATOM
      1 O           3.7320   -0.7500    0.0000 O.2     1  UNL1       -0.2974
      2 C           4.5981    0.7500    0.0000 C.3     1  UNL1        0.0056
      3 C           5.4641    0.2500    0.0000 C.3     1  UNL1       -0.0492
      4 C           3.7320    0.2500    0.0000 C.2     1  UNL1        0.1331
      5 C           2.8660    0.7500    0.0000 C.3     1  UNL1        0.0030
      6 C           6.3301    0.7500    0.0000 C.3     1  UNL1       -0.0649
      7 C           2.0000    0.2500    0.0000 C.3     1  UNL1       -0.0586
      8 H           4.9966    1.2250    0.0000 H       1  UNL1        0.0341
      9 H           4.1996    1.2250    0.0000 H       1  UNL1        0.0341
     10 H           5.0656   -0.2249    0.0000 H       1  UNL1        0.0267
     11 H           5.8626   -0.2249    0.0000 H       1  UNL1        0.0267
     12 H           3.2646    1.2250    0.0000 H       1  UNL1        0.0339
     13 H           2.4675    1.2250    0.0000 H       1  UNL1        0.0339
     14 H           6.6401    0.2131    0.0000 H       1  UNL1        0.0230
     15 H           6.8671    1.0600    0.0000 H       1  UNL1        0.0230
     16 H           6.0201    1.2869    0.0000 H       1  UNL1        0.0230
     17 H           1.6900    0.7869    0.0000 H       1  UNL1        0.0234
     18 H           1.4631   -0.0600    0.0000 H       1  UNL1        0.0234
     19 H           2.3100   -0.2869    0.0000 H       1  UNL1        0.0234
@<TRIPOS>BOND
     1     1     4    2
     2     2     3    1
     3     2     4    1
     4     2     8    1
     5     2     9    1
     6     3     6    1
     7     3    10    1
     8     3    11    1
     9     4     5    1
    10     5     7    1
    11     5    12    1
    12     5    13    1
    13     6    14    1
    14     6    15    1
    15     6    16    1
    16     7    17    1
    17     7    18    1
    18     7    19    1
