@<TRIPOS>MOLECULE
IMPHY015707
 47 50 0 0 0
SMALL
GASTEIGER

@<TRIPOS>ATOM
      1 O           3.9061   -1.9174    0.0000 O.3     1  UNL1       -0.4857
      2 O           5.6660    1.1173    0.0000 O.3     1  UNL1       -0.4940
      3 O           7.4260   -1.9174    0.0000 O.2     1  UNL1       -0.4215
      4 O           9.1962   -1.9068    0.0000 O.2     1  UNL1       -0.2445
      5 O          10.0680   -1.3552    0.0000 O.3     1  UNL1       -0.5060
      6 O          11.7884    1.6515    0.0000 O.3     1  UNL1       -0.5066
      7 C           3.0000   -1.4035    0.0000 C.3     1  UNL1        0.1054
      8 C           3.0000   -0.3619    0.0000 C.3     1  UNL1       -0.0092
      9 C           3.9061    0.1520    0.0000 C.3     1  UNL1       -0.0171
     10 C           4.8000   -0.3827    0.0000 C.ar    1  UNL1        0.0368
     11 C           4.8000   -1.3827    0.0000 C.ar    1  UNL1        0.1314
     12 C           2.0000   -1.4074    0.0000 C.3     1  UNL1       -0.0252
     13 C           2.5033   -2.2715    0.0000 C.3     1  UNL1       -0.0252
     14 C           5.6660    0.1173    0.0000 C.ar    1  UNL1        0.1374
     15 C           6.5320   -0.3827    0.0000 C.ar    1  UNL1        0.0603
     16 C           5.6660   -1.8827    0.0000 C.ar    1  UNL1        0.0236
     17 C           6.5320   -1.3827    0.0000 C.ar    1  UNL1        0.1461
     18 C           7.4260    0.1520    0.0000 C.ar    1  UNL1       -0.0329
     19 C           8.3321   -0.3619    0.0000 C.ar    1  UNL1        0.0708
     20 C           8.3321   -1.4035    0.0000 C.ar    1  UNL1        0.3452
     21 C           9.1962    0.1415    0.0000 C.ar    1  UNL1        0.0306
     22 C           4.8000    1.6173    0.0000 C.3     1  UNL1        0.0788
     23 C          10.0641   -0.3552    0.0000 C.ar    1  UNL1        0.1282
     24 C           9.1923    1.1414    0.0000 C.ar    1  UNL1       -0.0469
     25 C          10.9282    0.1481    0.0000 C.ar    1  UNL1        0.0219
     26 C          10.0564    1.6448    0.0000 C.ar    1  UNL1       -0.0194
     27 C          10.9243    1.1481    0.0000 C.ar    1  UNL1        0.1204
     28 H           2.7909    0.2218    0.0000 H       1  UNL1        0.0307
     29 H           2.3891   -0.4680    0.0000 H       1  UNL1        0.0307
     30 H           4.3107    0.6218    0.0000 H       1  UNL1        0.0317
     31 H           3.5124    0.6310    0.0000 H       1  UNL1        0.0317
     32 H           1.9976   -0.7874    0.0000 H       1  UNL1        0.0268
     33 H           1.3800   -1.4098    0.0000 H       1  UNL1        0.0268
     34 H           2.0024   -2.0274    0.0000 H       1  UNL1        0.0268
     35 H           1.9652   -1.9635    0.0000 H       1  UNL1        0.0268
     36 H           2.1954   -2.8096    0.0000 H       1  UNL1        0.0268
     37 H           3.0415   -2.5794    0.0000 H       1  UNL1        0.0268
     38 H           5.6660   -2.5027    0.0000 H       1  UNL1        0.0691
     39 H           7.4188    0.7719    0.0000 H       1  UNL1        0.0634
     40 H           5.1100    2.1542    0.0000 H       1  UNL1        0.0660
     41 H           4.2631    1.9273    0.0000 H       1  UNL1        0.0660
     42 H           4.4900    1.0804    0.0000 H       1  UNL1        0.0660
     43 H           8.6542    1.4494    0.0000 H       1  UNL1        0.0626
     44 H          11.4663   -0.1598    0.0000 H       1  UNL1        0.0691
     45 H          10.0540    2.2648    0.0000 H       1  UNL1        0.0654
     46 H          10.6061   -1.6631    0.0000 H       1  UNL1        0.2922
     47 H          11.7860    2.2715    0.0000 H       1  UNL1        0.2921
@<TRIPOS>BOND
     1     1     7    1
     2     1    11    1
     3     2    14    1
     4     2    22    1
     5     3    17   ar
     6     3    20   ar
     7     4    20    2
     8     5    23    1
     9     5    46    1
    10     6    27    1
    11     6    47    1
    12     7     8    1
    13     7    12    1
    14     7    13    1
    15     8     9    1
    16     8    28    1
    17     8    29    1
    18     9    10    1
    19     9    30    1
    20     9    31    1
    21    10    11   ar
    22    10    14   ar
    23    11    16   ar
    24    12    32    1
    25    12    33    1
    26    12    34    1
    27    13    35    1
    28    13    36    1
    29    13    37    1
    30    14    15   ar
    31    15    17   ar
    32    15    18   ar
    33    16    17   ar
    34    16    38    1
    35    18    19   ar
    36    18    39    1
    37    19    20   ar
    38    19    21    1
    39    21    23   ar
    40    21    24   ar
    41    22    40    1
    42    22    41    1
    43    22    42    1
    44    23    25   ar
    45    24    26   ar
    46    24    43    1
    47    25    27   ar
    48    25    44    1
    49    26    27   ar
    50    26    45    1
