@<TRIPOS>MOLECULE
IMPHY000181
 36 36 0 0 0
SMALL
GASTEIGER

@<TRIPOS>ATOM
      1 O           5.1350    1.0101    0.0000 O.3     1  UNL1       -0.3419
      2 O           3.7690   -0.3560    0.0000 O.3     1  UNL1       -0.3446
      3 O           2.5369    0.5101    0.0000 O.3     1  UNL1       -0.3837
      4 O           2.5369    2.5101    0.0000 O.3     1  UNL1       -0.3864
      5 O           4.2690    3.5101    0.0000 O.3     1  UNL1       -0.3869
      6 O           5.7690   -0.3560    0.0000 O.3     1  UNL1       -0.3896
      7 C           4.2690    0.5101    0.0000 C.3     1  UNL1        0.2226
      8 C           3.4030    1.0101    0.0000 C.3     1  UNL1        0.1394
      9 C           3.4030    2.0101    0.0000 C.3     1  UNL1        0.1141
     10 C           4.2690    2.5101    0.0000 C.3     1  UNL1        0.1070
     11 C           5.1350    2.0101    0.0000 C.3     1  UNL1        0.0795
     12 C           4.7690   -0.3560    0.0000 C.3     1  UNL1        0.1008
     13 C           4.2690   -1.2220    0.0000 C.3     1  UNL1        0.0511
     14 C           3.7690   -2.0880    0.0000 C.3     1  UNL1       -0.0296
     15 C           4.2690   -2.9540    0.0000 C.3     1  UNL1       -0.0538
     16 C           3.7690   -3.8201    0.0000 C.3     1  UNL1       -0.0652
     17 H           3.4030    0.3901    0.0000 H       1  UNL1        0.0675
     18 H           3.4030    2.6301    0.0000 H       1  UNL1        0.0648
     19 H           4.8059    2.8201    0.0000 H       1  UNL1        0.0643
     20 H           5.7456    1.9024    0.0000 H       1  UNL1        0.0587
     21 H           5.3471    2.5927    0.0000 H       1  UNL1        0.0587
     22 H           4.1864   -0.5680    0.0000 H       1  UNL1        0.0612
     23 H           4.8766   -0.9665    0.0000 H       1  UNL1        0.0612
     24 H           4.7439   -1.6205    0.0000 H       1  UNL1        0.0561
     25 H           4.7439   -0.8235    0.0000 H       1  UNL1        0.0561
     26 H           2.0000    0.8201    0.0000 H       1  UNL1        0.2101
     27 H           2.5369    3.1301    0.0000 H       1  UNL1        0.2100
     28 H           3.2940   -1.6895    0.0000 H       1  UNL1        0.0287
     29 H           3.2940   -2.4865    0.0000 H       1  UNL1        0.0287
     30 H           4.8059    3.8201    0.0000 H       1  UNL1        0.2100
     31 H           4.7439   -3.3526    0.0000 H       1  UNL1        0.0263
     32 H           4.7439   -2.5555    0.0000 H       1  UNL1        0.0263
     33 H           6.0790   -0.8929    0.0000 H       1  UNL1        0.2096
     34 H           3.2320   -3.5101    0.0000 H       1  UNL1        0.0230
     35 H           3.4590   -4.3570    0.0000 H       1  UNL1        0.0230
     36 H           4.3059   -4.1301    0.0000 H       1  UNL1        0.0230
@<TRIPOS>BOND
     1     1     7    1
     2     1    11    1
     3     2     7    1
     4     2    13    1
     5     8     3    1
     6     3    26    1
     7     9     4    1
     8     4    27    1
     9    10     5    1
    10     5    30    1
    11     6    12    1
    12     6    33    1
    13     7     8    1
    14     7    12    1
    15     8     9    1
    16     8    17    1
    17     9    10    1
    18     9    18    1
    19    10    11    1
    20    10    19    1
    21    11    20    1
    22    11    21    1
    23    12    22    1
    24    12    23    1
    25    13    14    1
    26    13    24    1
    27    13    25    1
    28    14    15    1
    29    14    28    1
    30    14    29    1
    31    15    16    1
    32    15    31    1
    33    15    32    1
    34    16    34    1
    35    16    35    1
    36    16    36    1
