@<TRIPOS>MOLECULE
IMPHY004618
 192 193 0 0 0
SMALL
GASTEIGER

@<TRIPOS>ATOM
      1 O           3.8660  -10.2500    0.0000 O.3     1  UNL1       -0.4610
      2 O          11.6603   10.2500    0.0000 O.3     1  UNL1       -0.4610
      3 O           5.5981  -10.2500    0.0000 O.2     1  UNL1       -0.2508
      4 O          13.3923   10.2500    0.0000 O.2     1  UNL1       -0.2508
      5 C           3.0000   -7.7500    0.0000 C.3     1  UNL1       -0.0066
      6 C          10.7942    7.7500    0.0000 C.3     1  UNL1       -0.0066
      7 C           3.0000   -8.7500    0.0000 C.3     1  UNL1       -0.0062
      8 C          10.7942    8.7500    0.0000 C.3     1  UNL1       -0.0062
      9 C           3.8660   -9.2500    0.0000 C.3     1  UNL1        0.1075
     10 C          11.6603    9.2500    0.0000 C.3     1  UNL1        0.1075
     11 C           3.8660   -7.2500    0.0000 C.2     1  UNL1       -0.0425
     12 C          11.6603    7.2500    0.0000 C.2     1  UNL1       -0.0425
     13 C           4.7320   -8.7500    0.0000 C.3     1  UNL1        0.0059
     14 C          12.5263    8.7500    0.0000 C.3     1  UNL1        0.0059
     15 C           4.7320   -7.7500    0.0000 C.2     1  UNL1       -0.0655
     16 C          12.5263    7.7500    0.0000 C.2     1  UNL1       -0.0655
     17 C           2.0000   -7.7500    0.0000 C.3     1  UNL1       -0.0557
     18 C           2.5000   -6.8840    0.0000 C.3     1  UNL1       -0.0557
     19 C           9.7942    7.7500    0.0000 C.3     1  UNL1       -0.0557
     20 C          10.2942    6.8840    0.0000 C.3     1  UNL1       -0.0557
     21 C           3.8660   -6.2500    0.0000 C.2     1  UNL1       -0.0579
     22 C          11.6603    6.2500    0.0000 C.2     1  UNL1       -0.0579
     23 C           5.5981   -7.2500    0.0000 C.3     1  UNL1       -0.0431
     24 C          13.3923    7.2500    0.0000 C.3     1  UNL1       -0.0431
     25 C           4.7320  -10.7500    0.0000 C.2     1  UNL1        0.3073
     26 C          12.5263   10.7500    0.0000 C.2     1  UNL1        0.3073
     27 C           4.7320   -5.7500    0.0000 C.2     1  UNL1       -0.0586
     28 C          10.7942    5.7500    0.0000 C.2     1  UNL1       -0.0586
     29 C           4.7320  -11.7500    0.0000 C.3     1  UNL1        0.0449
     30 C          12.5263   11.7500    0.0000 C.3     1  UNL1        0.0449
     31 C           5.5981  -12.2500    0.0000 C.3     1  UNL1       -0.0430
     32 C          13.3923   12.2500    0.0000 C.3     1  UNL1       -0.0430
     33 C           4.7320   -4.7500    0.0000 C.2     1  UNL1       -0.0504
     34 C          10.7942    4.7500    0.0000 C.2     1  UNL1       -0.0504
     35 C           5.5981  -13.2500    0.0000 C.3     1  UNL1       -0.0526
     36 C          13.3923   13.2500    0.0000 C.3     1  UNL1       -0.0526
     37 C           6.4641  -13.7500    0.0000 C.3     1  UNL1       -0.0530
     38 C          14.2583   13.7500    0.0000 C.3     1  UNL1       -0.0530
     39 C           6.4641  -14.7500    0.0000 C.3     1  UNL1       -0.0531
     40 C          14.2583   14.7500    0.0000 C.3     1  UNL1       -0.0531
     41 C           3.8660   -4.2500    0.0000 C.3     1  UNL1       -0.0397
     42 C          11.6603    4.2500    0.0000 C.3     1  UNL1       -0.0397
     43 C           5.5981   -4.2500    0.0000 C.2     1  UNL1       -0.0588
     44 C           9.9282    4.2500    0.0000 C.2     1  UNL1       -0.0588
     45 C           7.3301  -15.2500    0.0000 C.3     1  UNL1       -0.0531
     46 C          15.1244   15.2500    0.0000 C.3     1  UNL1       -0.0531
     47 C           7.3301  -16.2500    0.0000 C.3     1  UNL1       -0.0531
     48 C          15.1244   16.2500    0.0000 C.3     1  UNL1       -0.0531
     49 C           8.1962  -16.7500    0.0000 C.3     1  UNL1       -0.0531
     50 C          15.9904   16.7500    0.0000 C.3     1  UNL1       -0.0531
     51 C           8.1962  -17.7500    0.0000 C.3     1  UNL1       -0.0531
     52 C          15.9904   17.7500    0.0000 C.3     1  UNL1       -0.0531
     53 C           5.5981   -3.2500    0.0000 C.2     1  UNL1       -0.0613
     54 C           9.9282    3.2500    0.0000 C.2     1  UNL1       -0.0613
     55 C           9.0622  -18.2500    0.0000 C.3     1  UNL1       -0.0531
     56 C          16.8564   18.2500    0.0000 C.3     1  UNL1       -0.0531
     57 C           9.0622  -19.2500    0.0000 C.3     1  UNL1       -0.0531
     58 C          16.8564   19.2500    0.0000 C.3     1  UNL1       -0.0531
     59 C           9.9282  -19.7500    0.0000 C.3     1  UNL1       -0.0531
     60 C          17.7224   19.7500    0.0000 C.3     1  UNL1       -0.0531
     61 C           6.4641   -2.7500    0.0000 C.2     1  UNL1       -0.0588
     62 C           9.0622    2.7500    0.0000 C.2     1  UNL1       -0.0588
     63 C           9.9282  -20.7500    0.0000 C.3     1  UNL1       -0.0533
     64 C          17.7224   20.7500    0.0000 C.3     1  UNL1       -0.0533
     65 C           6.4641   -1.7500    0.0000 C.2     1  UNL1       -0.0504
     66 C           9.0622    1.7500    0.0000 C.2     1  UNL1       -0.0504
     67 C          10.7942  -21.2500    0.0000 C.3     1  UNL1       -0.0559
     68 C          18.5885   21.2500    0.0000 C.3     1  UNL1       -0.0559
     69 C           5.5981   -1.2500    0.0000 C.3     1  UNL1       -0.0397
     70 C           9.9282    1.2500    0.0000 C.3     1  UNL1       -0.0397
     71 C           7.3301   -1.2500    0.0000 C.2     1  UNL1       -0.0588
     72 C           8.1962    1.2500    0.0000 C.2     1  UNL1       -0.0588
     73 C          10.7942  -22.2500    0.0000 C.3     1  UNL1       -0.0653
     74 C          18.5885   22.2500    0.0000 C.3     1  UNL1       -0.0653
     75 C           7.3301   -0.2500    0.0000 C.2     1  UNL1       -0.0615
     76 C           8.1962    0.2500    0.0000 C.2     1  UNL1       -0.0615
     77 H           2.3894   -8.6423    0.0000 H       1  UNL1        0.0309
     78 H           2.7880   -9.3326    0.0000 H       1  UNL1        0.0309
     79 H          10.5822    9.3326    0.0000 H       1  UNL1        0.0309
     80 H          10.1836    8.6423    0.0000 H       1  UNL1        0.0309
     81 H           4.4030   -9.5600    0.0000 H       1  UNL1        0.0737
     82 H          12.1972    9.5600    0.0000 H       1  UNL1        0.0737
     83 H           4.9441   -9.3326    0.0000 H       1  UNL1        0.0346
     84 H           5.3426   -8.6423    0.0000 H       1  UNL1        0.0346
     85 H          13.1369    8.6423    0.0000 H       1  UNL1        0.0346
     86 H          12.7383    9.3326    0.0000 H       1  UNL1        0.0346
     87 H           2.0000   -7.1300    0.0000 H       1  UNL1        0.0238
     88 H           1.3800   -7.7500    0.0000 H       1  UNL1        0.0238
     89 H           2.0000   -8.3700    0.0000 H       1  UNL1        0.0238
     90 H           3.0369   -6.5740    0.0000 H       1  UNL1        0.0238
     91 H           2.1900   -6.3470    0.0000 H       1  UNL1        0.0238
     92 H           1.9631   -7.1940    0.0000 H       1  UNL1        0.0238
     93 H           9.7573    7.1940    0.0000 H       1  UNL1        0.0238
     94 H           9.7942    8.3700    0.0000 H       1  UNL1        0.0238
     95 H           9.9842    6.3470    0.0000 H       1  UNL1        0.0238
     96 H          10.8312    6.5740    0.0000 H       1  UNL1        0.0238
     97 H           9.1742    7.7500    0.0000 H       1  UNL1        0.0238
     98 H           9.7942    7.1300    0.0000 H       1  UNL1        0.0238
     99 H           3.3291   -5.9400    0.0000 H       1  UNL1        0.0621
    100 H          12.1972    5.9400    0.0000 H       1  UNL1        0.0621
    101 H           5.9081   -7.7869    0.0000 H       1  UNL1        0.0275
    102 H           6.1350   -6.9400    0.0000 H       1  UNL1        0.0275
    103 H           5.2881   -6.7131    0.0000 H       1  UNL1        0.0275
    104 H          13.0823    6.7131    0.0000 H       1  UNL1        0.0275
    105 H          13.9292    6.9400    0.0000 H       1  UNL1        0.0275
    106 H          13.7023    7.7869    0.0000 H       1  UNL1        0.0275
    107 H           5.2690   -6.0600    0.0000 H       1  UNL1        0.0620
    108 H          10.2573    6.0600    0.0000 H       1  UNL1        0.0620
    109 H           4.1215  -11.6423    0.0000 H       1  UNL1        0.0377
    110 H           4.5200  -12.3326    0.0000 H       1  UNL1        0.0377
    111 H          12.3142   12.3326    0.0000 H       1  UNL1        0.0377
    112 H          11.9157   11.6423    0.0000 H       1  UNL1        0.0377
    113 H           6.2087  -12.3577    0.0000 H       1  UNL1        0.0270
    114 H           5.8101  -11.6674    0.0000 H       1  UNL1        0.0270
    115 H          13.6044   11.6674    0.0000 H       1  UNL1        0.0270
    116 H          14.0029   12.3577    0.0000 H       1  UNL1        0.0270
    117 H           4.9875  -13.1423    0.0000 H       1  UNL1        0.0265
    118 H           5.3860  -13.8326    0.0000 H       1  UNL1        0.0265
    119 H          13.1803   13.8326    0.0000 H       1  UNL1        0.0265
    120 H          12.7817   13.1423    0.0000 H       1  UNL1        0.0265
    121 H           7.0747  -13.8577    0.0000 H       1  UNL1        0.0265
    122 H           6.6762  -13.1674    0.0000 H       1  UNL1        0.0265
    123 H          14.4704   13.1674    0.0000 H       1  UNL1        0.0265
    124 H          14.8689   13.8577    0.0000 H       1  UNL1        0.0265
    125 H           5.8535  -14.6423    0.0000 H       1  UNL1        0.0265
    126 H           6.2520  -15.3326    0.0000 H       1  UNL1        0.0265
    127 H          14.0463   15.3326    0.0000 H       1  UNL1        0.0265
    128 H          13.6477   14.6423    0.0000 H       1  UNL1        0.0265
    129 H           4.1760   -3.7131    0.0000 H       1  UNL1        0.0278
    130 H           3.3291   -3.9400    0.0000 H       1  UNL1        0.0278
    131 H           3.5560   -4.7869    0.0000 H       1  UNL1        0.0278
    132 H          11.3503    3.7131    0.0000 H       1  UNL1        0.0278
    133 H          12.1972    3.9400    0.0000 H       1  UNL1        0.0278
    134 H          11.9703    4.7869    0.0000 H       1  UNL1        0.0278
    135 H           6.1350   -4.5600    0.0000 H       1  UNL1        0.0620
    136 H           9.3913    4.5600    0.0000 H       1  UNL1        0.0620
    137 H           7.9407  -15.3577    0.0000 H       1  UNL1        0.0265
    138 H           7.5422  -14.6674    0.0000 H       1  UNL1        0.0265
    139 H          15.3364   14.6674    0.0000 H       1  UNL1        0.0265
    140 H          15.7349   15.3577    0.0000 H       1  UNL1        0.0265
    141 H           6.7196  -16.1423    0.0000 H       1  UNL1        0.0265
    142 H           7.1181  -16.8326    0.0000 H       1  UNL1        0.0265
    143 H          14.9123   16.8326    0.0000 H       1  UNL1        0.0265
    144 H          14.5138   16.1423    0.0000 H       1  UNL1        0.0265
    145 H           8.8067  -16.8577    0.0000 H       1  UNL1        0.0265
    146 H           8.4082  -16.1674    0.0000 H       1  UNL1        0.0265
    147 H          16.2024   16.1674    0.0000 H       1  UNL1        0.0265
    148 H          16.6010   16.8577    0.0000 H       1  UNL1        0.0265
    149 H           7.5856  -17.6423    0.0000 H       1  UNL1        0.0265
    150 H           7.9841  -18.3326    0.0000 H       1  UNL1        0.0265
    151 H          15.7783   18.3326    0.0000 H       1  UNL1        0.0265
    152 H          15.3798   17.6423    0.0000 H       1  UNL1        0.0265
    153 H           5.0611   -2.9400    0.0000 H       1  UNL1        0.0618
    154 H          10.4651    2.9400    0.0000 H       1  UNL1        0.0618
    155 H           9.6728  -18.3577    0.0000 H       1  UNL1        0.0265
    156 H           9.2742  -17.6674    0.0000 H       1  UNL1        0.0265
    157 H          17.0685   17.6674    0.0000 H       1  UNL1        0.0265
    158 H          17.4670   18.3577    0.0000 H       1  UNL1        0.0265
    159 H           8.4516  -19.1423    0.0000 H       1  UNL1        0.0265
    160 H           8.8501  -19.8326    0.0000 H       1  UNL1        0.0265
    161 H          16.6444   19.8326    0.0000 H       1  UNL1        0.0265
    162 H          16.2458   19.1423    0.0000 H       1  UNL1        0.0265
    163 H          10.5388  -19.8577    0.0000 H       1  UNL1        0.0265
    164 H          10.1403  -19.1674    0.0000 H       1  UNL1        0.0265
    165 H          17.9345   19.1674    0.0000 H       1  UNL1        0.0265
    166 H          18.3330   19.8577    0.0000 H       1  UNL1        0.0265
    167 H           7.0010   -3.0600    0.0000 H       1  UNL1        0.0620
    168 H           8.5252    3.0600    0.0000 H       1  UNL1        0.0620
    169 H           9.3176  -20.6423    0.0000 H       1  UNL1        0.0265
    170 H           9.7162  -21.3326    0.0000 H       1  UNL1        0.0265
    171 H          17.5104   21.3326    0.0000 H       1  UNL1        0.0265
    172 H          17.1119   20.6423    0.0000 H       1  UNL1        0.0265
    173 H          11.4048  -21.3577    0.0000 H       1  UNL1        0.0263
    174 H          11.0063  -20.6674    0.0000 H       1  UNL1        0.0263
    175 H          18.8005   20.6674    0.0000 H       1  UNL1        0.0263
    176 H          19.1990   21.3577    0.0000 H       1  UNL1        0.0263
    177 H           5.9081   -0.7131    0.0000 H       1  UNL1        0.0278
    178 H           5.0611   -0.9400    0.0000 H       1  UNL1        0.0278
    179 H           5.2881   -1.7869    0.0000 H       1  UNL1        0.0278
    180 H           9.6182    0.7131    0.0000 H       1  UNL1        0.0278
    181 H          10.4651    0.9400    0.0000 H       1  UNL1        0.0278
    182 H          10.2382    1.7869    0.0000 H       1  UNL1        0.0278
    183 H          10.1742  -22.2500    0.0000 H       1  UNL1        0.0230
    184 H          10.7942  -22.8700    0.0000 H       1  UNL1        0.0230
    185 H          11.4142  -22.2500    0.0000 H       1  UNL1        0.0230
    186 H           7.8671   -1.5600    0.0000 H       1  UNL1        0.0620
    187 H          19.2085   22.2500    0.0000 H       1  UNL1        0.0230
    188 H          18.5885   22.8700    0.0000 H       1  UNL1        0.0230
    189 H          17.9685   22.2500    0.0000 H       1  UNL1        0.0230
    190 H           7.6592    1.5600    0.0000 H       1  UNL1        0.0620
    191 H           6.7932    0.0600    0.0000 H       1  UNL1        0.0618
    192 H           8.7331   -0.0600    0.0000 H       1  UNL1        0.0618
@<TRIPOS>BOND
     1     9     1    1
     2     1    25    1
     3    10     2    1
     4     2    26    1
     5     3    25    2
     6     4    26    2
     7     5     7    1
     8     5    11    1
     9     5    17    1
    10     5    18    1
    11     6     8    1
    12     6    12    1
    13     6    19    1
    14     6    20    1
    15     7     9    1
    16     7    77    1
    17     7    78    1
    18     8    10    1
    19     8    79    1
    20     8    80    1
    21     9    13    1
    22     9    81    1
    23    10    14    1
    24    10    82    1
    25    11    15    2
    26    11    21    1
    27    12    16    2
    28    12    22    1
    29    13    15    1
    30    13    83    1
    31    13    84    1
    32    14    16    1
    33    14    85    1
    34    14    86    1
    35    15    23    1
    36    16    24    1
    37    17    87    1
    38    17    88    1
    39    17    89    1
    40    18    90    1
    41    18    91    1
    42    18    92    1
    43    19    94    1
    44    19    97    1
    45    19    98    1
    46    20    93    1
    47    20    95    1
    48    20    96    1
    49    21    27    2
    50    21    99    1
    51    22    28    2
    52    22   100    1
    53    23   101    1
    54    23   102    1
    55    23   103    1
    56    24   104    1
    57    24   105    1
    58    24   106    1
    59    25    29    1
    60    26    30    1
    61    27    33    1
    62    27   107    1
    63    28    34    1
    64    28   108    1
    65    29    31    1
    66    29   109    1
    67    29   110    1
    68    30    32    1
    69    30   111    1
    70    30   112    1
    71    31    35    1
    72    31   113    1
    73    31   114    1
    74    32    36    1
    75    32   115    1
    76    32   116    1
    77    33    41    1
    78    33    43    2
    79    34    42    1
    80    34    44    2
    81    35    37    1
    82    35   117    1
    83    35   118    1
    84    36    38    1
    85    36   119    1
    86    36   120    1
    87    37    39    1
    88    37   121    1
    89    37   122    1
    90    38    40    1
    91    38   123    1
    92    38   124    1
    93    39    45    1
    94    39   125    1
    95    39   126    1
    96    40    46    1
    97    40   127    1
    98    40   128    1
    99    41   129    1
   100    41   130    1
   101    41   131    1
   102    42   132    1
   103    42   133    1
   104    42   134    1
   105    43    53    1
   106    43   135    1
   107    44    54    1
   108    44   136    1
   109    45    47    1
   110    45   137    1
   111    45   138    1
   112    46    48    1
   113    46   139    1
   114    46   140    1
   115    47    49    1
   116    47   141    1
   117    47   142    1
   118    48    50    1
   119    48   143    1
   120    48   144    1
   121    49    51    1
   122    49   145    1
   123    49   146    1
   124    50    52    1
   125    50   147    1
   126    50   148    1
   127    51    55    1
   128    51   149    1
   129    51   150    1
   130    52    56    1
   131    52   151    1
   132    52   152    1
   133    53    61    2
   134    53   153    1
   135    54    62    2
   136    54   154    1
   137    55    57    1
   138    55   155    1
   139    55   156    1
   140    56    58    1
   141    56   157    1
   142    56   158    1
   143    57    59    1
   144    57   159    1
   145    57   160    1
   146    58    60    1
   147    58   161    1
   148    58   162    1
   149    59    63    1
   150    59   163    1
   151    59   164    1
   152    60    64    1
   153    60   165    1
   154    60   166    1
   155    61    65    1
   156    61   167    1
   157    62    66    1
   158    62   168    1
   159    63    67    1
   160    63   169    1
   161    63   170    1
   162    64    68    1
   163    64   171    1
   164    64   172    1
   165    65    69    1
   166    65    71    2
   167    66    70    1
   168    66    72    2
   169    67    73    1
   170    67   173    1
   171    67   174    1
   172    68    74    1
   173    68   175    1
   174    68   176    1
   175    69   177    1
   176    69   178    1
   177    69   179    1
   178    70   180    1
   179    70   181    1
   180    70   182    1
   181    71    75    1
   182    71   186    1
   183    72    76    1
   184    72   190    1
   185    73   183    1
   186    73   184    1
   187    73   185    1
   188    74   187    1
   189    74   188    1
   190    74   189    1
   191    75    76    2
   192    75   191    1
   193    76   192    1
