@<TRIPOS>MOLECULE
IMPHY002584
 47 48 0 0 0
SMALL
GASTEIGER

@<TRIPOS>ATOM
      1 O           2.5369    1.7500    0.0000 O.3     1  UNL1       -0.5065
      2 O           7.7331   -4.2500    0.0000 O.3     1  UNL1       -0.4950
      3 O           9.4651   -1.2500    0.0000 O.3     1  UNL1       -0.5066
      4 C           6.0010   -0.2500    0.0000 C.3     1  UNL1       -0.0237
      5 C           6.0010   -1.2500    0.0000 C.3     1  UNL1       -0.0235
      6 C           5.1350    0.2500    0.0000 C.ar    1  UNL1       -0.0466
      7 C           4.2690    1.7500    0.0000 C.ar    1  UNL1       -0.0020
      8 C           6.8671   -1.7500    0.0000 C.ar    1  UNL1       -0.0402
      9 C           5.1350    1.2500    0.0000 C.ar    1  UNL1       -0.0516
     10 C           4.2690    2.7500    0.0000 C.3     1  UNL1       -0.0058
     11 C           4.2690   -0.2500    0.0000 C.ar    1  UNL1       -0.0551
     12 C           3.4030    1.2500    0.0000 C.ar    1  UNL1        0.1203
     13 C           3.4030    0.2500    0.0000 C.ar    1  UNL1       -0.0196
     14 C           6.8671   -2.7500    0.0000 C.ar    1  UNL1       -0.0165
     15 C           7.7331   -1.2500    0.0000 C.ar    1  UNL1       -0.0168
     16 C           5.1350    3.2500    0.0000 C.2     1  UNL1       -0.0809
     17 C           7.7331   -3.2500    0.0000 C.ar    1  UNL1        0.1238
     18 C           8.5991   -1.7500    0.0000 C.ar    1  UNL1        0.1206
     19 C           8.5991   -2.7500    0.0000 C.ar    1  UNL1        0.0215
     20 C           5.1350    4.2500    0.0000 C.2     1  UNL1       -0.0793
     21 C           6.0010    4.7500    0.0000 C.3     1  UNL1       -0.0440
     22 C           4.2690    4.7500    0.0000 C.3     1  UNL1       -0.0440
     23 C           8.5991   -4.7500    0.0000 C.3     1  UNL1        0.0788
     24 H           6.6116   -0.3577    0.0000 H       1  UNL1        0.0316
     25 H           6.2131    0.3326    0.0000 H       1  UNL1        0.0316
     26 H           5.3905   -1.1423    0.0000 H       1  UNL1        0.0316
     27 H           5.7890   -1.8326    0.0000 H       1  UNL1        0.0316
     28 H           5.6720    1.5600    0.0000 H       1  UNL1        0.0624
     29 H           4.0569    3.3326    0.0000 H       1  UNL1        0.0357
     30 H           3.6584    2.6423    0.0000 H       1  UNL1        0.0357
     31 H           4.2690   -0.8700    0.0000 H       1  UNL1        0.0621
     32 H           2.8660   -0.0600    0.0000 H       1  UNL1        0.0654
     33 H           6.3301   -3.0600    0.0000 H       1  UNL1        0.0657
     34 H           7.7331   -0.6300    0.0000 H       1  UNL1        0.0657
     35 H           5.6720    2.9400    0.0000 H       1  UNL1        0.0575
     36 H           9.1360   -3.0600    0.0000 H       1  UNL1        0.0691
     37 H           2.0000    1.4400    0.0000 H       1  UNL1        0.2921
     38 H           6.3110    4.2131    0.0000 H       1  UNL1        0.0274
     39 H           4.5790    5.2869    0.0000 H       1  UNL1        0.0274
     40 H           3.7320    5.0600    0.0000 H       1  UNL1        0.0274
     41 H           3.9590    4.2131    0.0000 H       1  UNL1        0.0274
     42 H           6.5380    5.0600    0.0000 H       1  UNL1        0.0274
     43 H           5.6910    5.2869    0.0000 H       1  UNL1        0.0274
     44 H          10.0021   -1.5600    0.0000 H       1  UNL1        0.2921
     45 H           8.2891   -5.2869    0.0000 H       1  UNL1        0.0660
     46 H           9.1360   -5.0600    0.0000 H       1  UNL1        0.0660
     47 H           8.9091   -4.2131    0.0000 H       1  UNL1        0.0660
@<TRIPOS>BOND
     1     1    12    1
     2     1    37    1
     3     2    17    1
     4     2    23    1
     5     3    18    1
     6     3    44    1
     7     4     5    1
     8     4     6    1
     9     4    24    1
    10     4    25    1
    11     5     8    1
    12     5    26    1
    13     5    27    1
    14     6     9   ar
    15     6    11   ar
    16     7     9   ar
    17     7    10    1
    18     7    12   ar
    19     8    14   ar
    20     8    15   ar
    21     9    28    1
    22    10    16    1
    23    10    29    1
    24    10    30    1
    25    11    13   ar
    26    11    31    1
    27    12    13   ar
    28    13    32    1
    29    14    17   ar
    30    14    33    1
    31    15    18   ar
    32    15    34    1
    33    16    20    2
    34    16    35    1
    35    17    19   ar
    36    18    19   ar
    37    19    36    1
    38    20    21    1
    39    20    22    1
    40    21    38    1
    41    21    42    1
    42    21    43    1
    43    22    39    1
    44    22    40    1
    45    22    41    1
    46    23    45    1
    47    23    46    1
    48    23    47    1
