@<TRIPOS>MOLECULE
IMPHY016294
 41 40 0 0 0
SMALL
GASTEIGER

@<TRIPOS>ATOM
      1 C           3.7320    0.1830    0.0000 C.3     1  UNL1       -0.0390
      2 C           2.8660   -0.3170    0.0000 C.3     1  UNL1       -0.0351
      3 C           4.5981   -0.3170    0.0000 C.3     1  UNL1       -0.0500
      4 C           5.4641    0.1830    0.0000 C.3     1  UNL1       -0.0528
      5 C           3.7320    1.1830    0.0000 C.3     1  UNL1       -0.0619
      6 C           2.0000   -0.8170    0.0000 C.3     1  UNL1       -0.0598
      7 C           2.3660    0.5490    0.0000 C.3     1  UNL1       -0.0598
      8 C           3.3660   -1.1830    0.0000 C.3     1  UNL1       -0.0598
      9 C           6.3301   -0.3170    0.0000 C.3     1  UNL1       -0.0530
     10 C           7.1962    0.1830    0.0000 C.3     1  UNL1       -0.0531
     11 C           8.0622   -0.3170    0.0000 C.3     1  UNL1       -0.0533
     12 C           8.9282    0.1830    0.0000 C.3     1  UNL1       -0.0559
     13 C           9.7942   -0.3170    0.0000 C.3     1  UNL1       -0.0653
     14 H           4.2690    0.4930    0.0000 H       1  UNL1        0.0303
     15 H           4.1996   -0.7919    0.0000 H       1  UNL1        0.0268
     16 H           4.9966   -0.7919    0.0000 H       1  UNL1        0.0268
     17 H           5.8626    0.6580    0.0000 H       1  UNL1        0.0265
     18 H           5.0656    0.6580    0.0000 H       1  UNL1        0.0265
     19 H           4.3520    1.1830    0.0000 H       1  UNL1        0.0233
     20 H           3.7320    1.8030    0.0000 H       1  UNL1        0.0233
     21 H           3.1120    1.1830    0.0000 H       1  UNL1        0.0233
     22 H           1.6900   -0.2801    0.0000 H       1  UNL1        0.0235
     23 H           1.4631   -1.1270    0.0000 H       1  UNL1        0.0235
     24 H           2.3100   -1.3539    0.0000 H       1  UNL1        0.0235
     25 H           2.9030    0.8590    0.0000 H       1  UNL1        0.0235
     26 H           2.0560    1.0860    0.0000 H       1  UNL1        0.0235
     27 H           1.8291    0.2390    0.0000 H       1  UNL1        0.0235
     28 H           2.8291   -1.4930    0.0000 H       1  UNL1        0.0235
     29 H           3.6760   -1.7200    0.0000 H       1  UNL1        0.0235
     30 H           3.9030   -0.8730    0.0000 H       1  UNL1        0.0235
     31 H           5.9316   -0.7919    0.0000 H       1  UNL1        0.0265
     32 H           6.7287   -0.7919    0.0000 H       1  UNL1        0.0265
     33 H           7.5947    0.6580    0.0000 H       1  UNL1        0.0265
     34 H           6.7976    0.6580    0.0000 H       1  UNL1        0.0265
     35 H           7.6636   -0.7919    0.0000 H       1  UNL1        0.0265
     36 H           8.4607   -0.7919    0.0000 H       1  UNL1        0.0265
     37 H           9.3267    0.6580    0.0000 H       1  UNL1        0.0263
     38 H           8.5297    0.6580    0.0000 H       1  UNL1        0.0263
     39 H           9.4842   -0.8539    0.0000 H       1  UNL1        0.0230
     40 H          10.3312   -0.6270    0.0000 H       1  UNL1        0.0230
     41 H          10.1042    0.2199    0.0000 H       1  UNL1        0.0230
@<TRIPOS>BOND
     1     1     2    1
     2     1     3    1
     3     1     5    1
     4     1    14    1
     5     2     6    1
     6     2     7    1
     7     2     8    1
     8     3     4    1
     9     3    15    1
    10     3    16    1
    11     4     9    1
    12     4    17    1
    13     4    18    1
    14     5    19    1
    15     5    20    1
    16     5    21    1
    17     6    22    1
    18     6    23    1
    19     6    24    1
    20     7    25    1
    21     7    26    1
    22     7    27    1
    23     8    28    1
    24     8    29    1
    25     8    30    1
    26     9    10    1
    27     9    31    1
    28     9    32    1
    29    10    11    1
    30    10    33    1
    31    10    34    1
    32    11    12    1
    33    11    35    1
    34    11    36    1
    35    12    13    1
    36    12    37    1
    37    12    38    1
    38    13    39    1
    39    13    40    1
    40    13    41    1
