@<TRIPOS>MOLECULE
IMPHY017559
 22 22 0 0 0
SMALL
GASTEIGER

@<TRIPOS>ATOM
      1 O           2.8660   -2.7500    0.0000 O.3     1  UNL1       -0.4951
      2 O           3.7320    1.7500    0.0000 O.3     1  UNL1       -0.4621
      3 O           4.5981    3.2500    0.0000 O.2     1  UNL1       -0.2546
      4 C           2.8660    0.2500    0.0000 C.ar    1  UNL1       -0.0101
      5 C           2.8660    1.2500    0.0000 C.3     1  UNL1        0.1173
      6 C           2.0000   -0.2500    0.0000 C.ar    1  UNL1       -0.0519
      7 C           3.7320   -0.2500    0.0000 C.ar    1  UNL1       -0.0519
      8 C           2.8660   -1.7500    0.0000 C.ar    1  UNL1        0.1201
      9 C           2.0000   -1.2500    0.0000 C.ar    1  UNL1       -0.0196
     10 C           3.7320   -1.2500    0.0000 C.ar    1  UNL1       -0.0196
     11 C           2.0000   -3.2500    0.0000 C.3     1  UNL1        0.0788
     12 C           3.7320    2.7500    0.0000 C.2     1  UNL1        0.2946
     13 H           2.6540    1.8326    0.0000 H       1  UNL1        0.0749
     14 H           2.2554    1.1423    0.0000 H       1  UNL1        0.0749
     15 H           1.4631    0.0600    0.0000 H       1  UNL1        0.0622
     16 H           4.2690    0.0600    0.0000 H       1  UNL1        0.0622
     17 H           1.4631   -1.5600    0.0000 H       1  UNL1        0.0654
     18 H           4.2690   -1.5600    0.0000 H       1  UNL1        0.0654
     19 H           1.6900   -2.7131    0.0000 H       1  UNL1        0.0660
     20 H           1.4631   -3.5600    0.0000 H       1  UNL1        0.0660
     21 H           2.3100   -3.7869    0.0000 H       1  UNL1        0.0660
     22 H           3.1951    3.0600    0.0000 H       1  UNL1        0.1512
@<TRIPOS>BOND
     1     1     8    1
     2     1    11    1
     3     2     5    1
     4     2    12    1
     5     3    12    2
     6     4     5    1
     7     4     6   ar
     8     4     7   ar
     9     5    13    1
    10     5    14    1
    11     6     9   ar
    12     6    15    1
    13     7    10   ar
    14     7    16    1
    15     8     9   ar
    16     8    10   ar
    17     9    17    1
    18    10    18    1
    19    11    19    1
    20    11    20    1
    21    11    21    1
    22    12    22    1
