@<TRIPOS>MOLECULE
IMPHY016611
 59 58 0 0 0
SMALL
GASTEIGER

@<TRIPOS>ATOM
      1 O           3.7690    0.8195    0.0000 O.3     1  UNL1       -0.3768
      2 C          11.1972   -0.0465    0.0000 C.3     1  UNL1       -0.0439
      3 C           7.7331   -0.0465    0.0000 C.3     1  UNL1       -0.0439
      4 C          10.3312    0.4535    0.0000 C.3     1  UNL1       -0.0505
      5 C           8.5991    0.4535    0.0000 C.3     1  UNL1       -0.0505
      6 C           9.4651   -0.0465    0.0000 C.3     1  UNL1       -0.0526
      7 C          12.0632    0.4535    0.0000 C.3     1  UNL1       -0.0505
      8 C           6.8671    0.4535    0.0000 C.3     1  UNL1       -0.0503
      9 C          12.9292   -0.0465    0.0000 C.3     1  UNL1       -0.0526
     10 C           6.0010   -0.0465    0.0000 C.3     1  UNL1       -0.0493
     11 C          13.7953    0.4535    0.0000 C.3     1  UNL1       -0.0507
     12 C          11.1972   -1.0465    0.0000 C.3     1  UNL1       -0.0624
     13 C           7.7331   -1.0465    0.0000 C.3     1  UNL1       -0.0624
     14 C           5.1350    0.4535    0.0000 C.3     1  UNL1       -0.0129
     15 C          14.6613   -0.0465    0.0000 C.3     1  UNL1       -0.0467
     16 C           4.2690   -0.0465    0.0000 C.3     1  UNL1        0.1234
     17 C          15.5273    0.4535    0.0000 C.3     1  UNL1       -0.0627
     18 C          14.6613   -1.0465    0.0000 C.3     1  UNL1       -0.0627
     19 C           4.7690   -0.9125    0.0000 C.3     1  UNL1       -0.0247
     20 C           3.4030   -0.5465    0.0000 C.1     1  UNL1       -0.0713
     21 C           2.5369   -1.0465    0.0000 C.1     1  UNL1       -0.1163
     22 H          10.6603   -0.3565    0.0000 H       1  UNL1        0.0298
     23 H           8.2700   -0.3565    0.0000 H       1  UNL1        0.0298
     24 H          10.7297    0.9285    0.0000 H       1  UNL1        0.0268
     25 H           9.9326    0.9285    0.0000 H       1  UNL1        0.0268
     26 H           8.9976    0.9285    0.0000 H       1  UNL1        0.0268
     27 H           8.2006    0.9285    0.0000 H       1  UNL1        0.0268
     28 H           9.0666   -0.5214    0.0000 H       1  UNL1        0.0265
     29 H           9.8637   -0.5214    0.0000 H       1  UNL1        0.0265
     30 H          12.4617    0.9285    0.0000 H       1  UNL1        0.0268
     31 H          11.6647    0.9285    0.0000 H       1  UNL1        0.0268
     32 H           7.2656    0.9285    0.0000 H       1  UNL1        0.0268
     33 H           6.4685    0.9285    0.0000 H       1  UNL1        0.0268
     34 H          12.5307   -0.5214    0.0000 H       1  UNL1        0.0265
     35 H          13.3278   -0.5214    0.0000 H       1  UNL1        0.0265
     36 H           5.6025   -0.5214    0.0000 H       1  UNL1        0.0267
     37 H           6.3996   -0.5214    0.0000 H       1  UNL1        0.0267
     38 H          14.1938    0.9285    0.0000 H       1  UNL1        0.0268
     39 H          13.3967    0.9285    0.0000 H       1  UNL1        0.0268
     40 H          10.5772   -1.0465    0.0000 H       1  UNL1        0.0232
     41 H          11.1972   -1.6665    0.0000 H       1  UNL1        0.0232
     42 H          11.8172   -1.0465    0.0000 H       1  UNL1        0.0232
     43 H           7.1131   -1.0465    0.0000 H       1  UNL1        0.0232
     44 H           7.7331   -1.6665    0.0000 H       1  UNL1        0.0232
     45 H           8.3531   -1.0465    0.0000 H       1  UNL1        0.0232
     46 H           5.5335    0.9285    0.0000 H       1  UNL1        0.0302
     47 H           4.7365    0.9285    0.0000 H       1  UNL1        0.0302
     48 H          14.1244   -0.3565    0.0000 H       1  UNL1        0.0295
     49 H          15.8373   -0.0834    0.0000 H       1  UNL1        0.0232
     50 H          16.0643    0.7635    0.0000 H       1  UNL1        0.0232
     51 H          15.2173    0.9905    0.0000 H       1  UNL1        0.0232
     52 H          14.0413   -1.0465    0.0000 H       1  UNL1        0.0232
     53 H          14.6613   -1.6665    0.0000 H       1  UNL1        0.0232
     54 H          15.2813   -1.0465    0.0000 H       1  UNL1        0.0232
     55 H           4.2320   -1.2225    0.0000 H       1  UNL1        0.0267
     56 H           5.0790   -1.4494    0.0000 H       1  UNL1        0.0267
     57 H           5.3059   -0.6025    0.0000 H       1  UNL1        0.0267
     58 H           4.0790    1.3565    0.0000 H       1  UNL1        0.2114
     59 H           2.0000   -1.3565    0.0000 H       1  UNL1        0.1229
@<TRIPOS>BOND
     1     1    16    1
     2     1    58    1
     3     2     4    1
     4     2     7    1
     5     2    12    1
     6     2    22    1
     7     3     5    1
     8     3     8    1
     9     3    13    1
    10     3    23    1
    11     4     6    1
    12     4    24    1
    13     4    25    1
    14     5     6    1
    15     5    26    1
    16     5    27    1
    17     6    28    1
    18     6    29    1
    19     7     9    1
    20     7    30    1
    21     7    31    1
    22     8    10    1
    23     8    32    1
    24     8    33    1
    25     9    11    1
    26     9    34    1
    27     9    35    1
    28    10    14    1
    29    10    36    1
    30    10    37    1
    31    11    15    1
    32    11    38    1
    33    11    39    1
    34    12    40    1
    35    12    41    1
    36    12    42    1
    37    13    43    1
    38    13    44    1
    39    13    45    1
    40    14    16    1
    41    14    46    1
    42    14    47    1
    43    15    17    1
    44    15    18    1
    45    15    48    1
    46    16    19    1
    47    16    20    1
    48    17    49    1
    49    17    50    1
    50    17    51    1
    51    18    52    1
    52    18    53    1
    53    18    54    1
    54    19    55    1
    55    19    56    1
    56    19    57    1
    57    20    21    3
    58    21    59    1
