@<TRIPOS>MOLECULE
IMPHY012092
 9 9 0 0 0
SMALL
GASTEIGER

@<TRIPOS>ATOM
      1 S           2.8090   -0.7694    0.0000 S.2     1  UNL1       -0.1051
      2 C           3.3090    0.7694    0.0000 C.ar    1  UNL1       -0.0547
      3 C           2.3090    0.7694    0.0000 C.ar    1  UNL1       -0.0547
      4 C           3.6180   -0.1816    0.0000 C.ar    1  UNL1       -0.0243
      5 C           2.0000   -0.1816    0.0000 C.ar    1  UNL1       -0.0243
      6 H           3.6734    1.2710    0.0000 H       1  UNL1        0.0623
      7 H           1.9446    1.2710    0.0000 H       1  UNL1        0.0623
      8 H           4.2077   -0.3732    0.0000 H       1  UNL1        0.0693
      9 H           1.4103   -0.3732    0.0000 H       1  UNL1        0.0693
@<TRIPOS>BOND
     1     1     4   ar
     2     1     5   ar
     3     2     3   ar
     4     2     4   ar
     5     2     6    1
     6     3     5   ar
     7     3     7    1
     8     4     8    1
     9     5     9    1
