@<TRIPOS>MOLECULE
IMPHY017340
 38 37 0 0 0
SMALL
GASTEIGER

@<TRIPOS>ATOM
      1 O           3.7320    2.2500    0.0000 O.3     1  UNL1       -0.4610
      2 O           7.1962    2.2500    0.0000 O.3     1  UNL1       -0.4648
      3 O           6.3301    0.7500    0.0000 O.2     1  UNL1       -0.2507
      4 O           2.8660    0.7500    0.0000 O.2     1  UNL1       -0.2512
      5 C           4.5981    0.7500    0.0000 C.3     1  UNL1       -0.0151
      6 C           3.7320    0.2500    0.0000 C.3     1  UNL1       -0.0497
      7 C           4.5981    1.7500    0.0000 C.3     1  UNL1        0.1131
      8 C           3.7320   -0.7500    0.0000 C.3     1  UNL1       -0.0532
      9 C           5.4641    2.2500    0.0000 C.3     1  UNL1        0.0819
     10 C           2.8660   -1.2500    0.0000 C.3     1  UNL1       -0.0559
     11 C           2.8660   -2.2500    0.0000 C.3     1  UNL1       -0.0653
     12 C           6.3301    1.7500    0.0000 C.2     1  UNL1        0.3106
     13 C           2.8660    1.7500    0.0000 C.2     1  UNL1        0.3042
     14 C           8.0622    1.7500    0.0000 C.3     1  UNL1        0.0896
     15 C           2.0000    2.2500    0.0000 C.3     1  UNL1        0.0332
     16 C           8.9282    2.2500    0.0000 C.3     1  UNL1       -0.0306
     17 H           4.8101    0.1674    0.0000 H       1  UNL1        0.0301
     18 H           5.2087    0.8577    0.0000 H       1  UNL1        0.0301
     19 H           3.5200    0.8326    0.0000 H       1  UNL1        0.0266
     20 H           3.1215    0.1423    0.0000 H       1  UNL1        0.0266
     21 H           4.5981    2.6000    0.0000 H       1  UNL1        0.0739
     22 H           3.9441   -1.3326    0.0000 H       1  UNL1        0.0265
     23 H           4.3426   -0.6423    0.0000 H       1  UNL1        0.0265
     24 H           5.8626    2.7250    0.0000 H       1  UNL1        0.0414
     25 H           5.0656    2.7250    0.0000 H       1  UNL1        0.0414
     26 H           2.6540   -0.6674    0.0000 H       1  UNL1        0.0263
     27 H           2.2554   -1.3577    0.0000 H       1  UNL1        0.0263
     28 H           2.2460   -2.2500    0.0000 H       1  UNL1        0.0230
     29 H           2.8660   -2.8700    0.0000 H       1  UNL1        0.0230
     30 H           3.4860   -2.2500    0.0000 H       1  UNL1        0.0230
     31 H           7.6636    1.2750    0.0000 H       1  UNL1        0.0694
     32 H           8.4607    1.2750    0.0000 H       1  UNL1        0.0694
     33 H           2.3100    2.7869    0.0000 H       1  UNL1        0.0342
     34 H           1.4631    2.5600    0.0000 H       1  UNL1        0.0342
     35 H           1.6900    1.7131    0.0000 H       1  UNL1        0.0342
     36 H           9.2382    1.7131    0.0000 H       1  UNL1        0.0262
     37 H           9.4651    2.5600    0.0000 H       1  UNL1        0.0262
     38 H           8.6182    2.7869    0.0000 H       1  UNL1        0.0262
@<TRIPOS>BOND
     1     1     7    1
     2     1    13    1
     3     2    12    1
     4     2    14    1
     5     3    12    2
     6     4    13    2
     7     5     6    1
     8     5     7    1
     9     5    17    1
    10     5    18    1
    11     6     8    1
    12     6    19    1
    13     6    20    1
    14     7     9    1
    15     7    21    1
    16     8    10    1
    17     8    22    1
    18     8    23    1
    19     9    12    1
    20     9    24    1
    21     9    25    1
    22    10    11    1
    23    10    26    1
    24    10    27    1
    25    11    28    1
    26    11    29    1
    27    11    30    1
    28    13    15    1
    29    14    16    1
    30    14    31    1
    31    14    32    1
    32    15    33    1
    33    15    34    1
    34    15    35    1
    35    16    36    1
    36    16    37    1
    37    16    38    1
