@<TRIPOS>MOLECULE
IMPHY010850
 157 161 0 0 0
SMALL
GASTEIGER

@<TRIPOS>ATOM
      1 O           8.9282   -0.0176    0.0000 O.3     1  UNL1       -0.3357
      2 O           7.1962   -0.0176    0.0000 O.3     1  UNL1       -0.3410
      3 O          10.6603    0.9824    0.0000 O.3     1  UNL1       -0.3377
      4 O           9.8060    2.4981    0.0000 O.3     1  UNL1       -0.3404
      5 O           7.1962   -3.0176    0.0000 O.3     1  UNL1       -0.3378
      6 O           8.9282   -2.0176    0.0000 O.3     1  UNL1       -0.4532
      7 O           7.1962    0.9824    0.0000 O.3     1  UNL1       -0.4558
      8 O          12.3923    2.9824    0.0000 O.3     1  UNL1       -0.3431
      9 O           5.4641   -2.0176    0.0000 O.3     1  UNL1       -0.4558
     10 O          10.6603    2.9824    0.0000 O.3     1  UNL1       -0.3454
     11 O           5.5685   -3.6099    0.0000 O.3     1  UNL1       -0.3431
     12 O           7.0670    2.3169    0.0000 O.3     1  UNL1       -0.3854
     13 O          12.3923   -0.0176    0.0000 O.3     1  UNL1       -0.3864
     14 O          14.1244    0.9824    0.0000 O.3     1  UNL1       -0.3866
     15 O           7.8803   -4.8970    0.0000 O.3     1  UNL1       -0.3841
     16 O           9.5206    4.6370    0.0000 O.3     1  UNL1       -0.3924
     17 O           6.5946   -6.4291    0.0000 O.3     1  UNL1       -0.3864
     18 O           4.6250   -6.0818    0.0000 O.3     1  UNL1       -0.3866
     19 O           8.0622   -3.5176    0.0000 O.2     1  UNL1       -0.2505
     20 O           5.4641    0.9824    0.0000 O.2     1  UNL1       -0.2508
     21 O           4.5981   -0.5176    0.0000 O.2     1  UNL1       -0.2505
     22 C           8.9282    0.9824    0.0000 C.3     1  UNL1        0.1516
     23 C           7.1962   -2.0176    0.0000 C.3     1  UNL1        0.1425
     24 C           8.0622   -1.5176    0.0000 C.3     1  UNL1        0.1830
     25 C           8.0622    1.4824    0.0000 C.3     1  UNL1        0.1620
     26 C           8.0622   -0.5176    0.0000 C.3     1  UNL1        0.1998
     27 C           9.7942    1.4824    0.0000 C.3     1  UNL1        0.1900
     28 C           6.3301   -1.5176    0.0000 C.3     1  UNL1        0.1585
     29 C           8.0504    2.4981    0.0000 C.3     1  UNL1        0.1229
     30 C           6.3301   -0.5176    0.0000 C.3     1  UNL1        0.0984
     31 C          11.5263    1.4824    0.0000 C.3     1  UNL1        0.1406
     32 C           8.9282    3.0094    0.0000 C.3     1  UNL1        0.1141
     33 C          12.3923    0.9824    0.0000 C.3     1  UNL1        0.1143
     34 C          11.5263    2.4824    0.0000 C.3     1  UNL1        0.1885
     35 C          13.2583    1.4824    0.0000 C.3     1  UNL1        0.1095
     36 C           6.5533   -3.7836    0.0000 C.3     1  UNL1        0.1884
     37 C          13.2583    2.4824    0.0000 C.3     1  UNL1        0.0873
     38 C           6.8954   -4.7234    0.0000 C.3     1  UNL1        0.1341
     39 C           5.4641   -0.0176    0.0000 C.3     1  UNL1       -0.0350
     40 C           8.7546    3.9942    0.0000 C.3     1  UNL1        0.0731
     41 C           6.2526   -5.4894    0.0000 C.3     1  UNL1        0.1140
     42 C           5.2678   -5.3157    0.0000 C.3     1  UNL1        0.1095
     43 C           4.9257   -4.3760    0.0000 C.3     1  UNL1        0.0873
     44 C          10.2528    3.9659    0.0000 C.3     1  UNL1        0.0618
     45 C          14.1244    2.9824    0.0000 C.3     1  UNL1       -0.0361
     46 C           9.2869    3.7071    0.0000 C.3     1  UNL1       -0.0265
     47 C          10.6629    4.8780    0.0000 C.3     1  UNL1       -0.0265
     48 C           8.9282   -3.0176    0.0000 C.2     1  UNL1        0.3104
     49 C           6.3301    1.4824    0.0000 C.2     1  UNL1        0.3075
     50 C           4.5981   -1.5176    0.0000 C.2     1  UNL1        0.3103
     51 C           3.9409   -4.2023    0.0000 C.3     1  UNL1       -0.0361
     52 C           8.5798    4.4142    0.0000 C.3     1  UNL1       -0.0507
     53 C           9.7942   -3.5176    0.0000 C.3     1  UNL1        0.0534
     54 C           3.7320   -2.0176    0.0000 C.3     1  UNL1        0.0534
     55 C           6.3301    2.4824    0.0000 C.3     1  UNL1        0.0450
     56 C          11.6578    4.9790    0.0000 C.3     1  UNL1       -0.0507
     57 C           8.5798    5.4142    0.0000 C.3     1  UNL1       -0.0530
     58 C           7.1962    2.9824    0.0000 C.3     1  UNL1       -0.0430
     59 C           7.7138    5.9142    0.0000 C.3     1  UNL1       -0.0531
     60 C           9.7942   -4.5176    0.0000 C.3     1  UNL1       -0.0432
     61 C           7.1962    3.9824    0.0000 C.3     1  UNL1       -0.0526
     62 C          12.0678    5.8910    0.0000 C.3     1  UNL1       -0.0532
     63 C           2.8660   -1.5176    0.0000 C.3     1  UNL1       -0.0432
     64 C           6.7479    5.6554    0.0000 C.3     1  UNL1       -0.0531
     65 C           6.4890    4.6895    0.0000 C.3     1  UNL1       -0.0530
     66 C          10.6603   -3.0176    0.0000 C.3     1  UNL1       -0.0523
     67 C           3.7320   -3.0176    0.0000 C.3     1  UNL1       -0.0523
     68 C          13.0627    5.9920    0.0000 C.3     1  UNL1       -0.0559
     69 C          10.6603   -5.0176    0.0000 C.3     1  UNL1       -0.0645
     70 C           2.0000   -2.0176    0.0000 C.3     1  UNL1       -0.0645
     71 C          13.4727    6.9040    0.0000 C.3     1  UNL1       -0.0653
     72 H           8.3913    0.6724    0.0000 H       1  UNL1        0.0686
     73 H           7.7331   -2.3276    0.0000 H       1  UNL1        0.0674
     74 H           8.5991   -1.2076    0.0000 H       1  UNL1        0.0813
     75 H           8.0622    0.6324    0.0000 H       1  UNL1        0.0789
     76 H           8.0622    0.1024    0.0000 H       1  UNL1        0.0949
     77 H           9.7844    0.6324    0.0000 H       1  UNL1        0.0938
     78 H           5.7932   -1.2076    0.0000 H       1  UNL1        0.0788
     79 H           7.8350    3.0795    0.0000 H       1  UNL1        0.0658
     80 H           6.3301    0.1024    0.0000 H       1  UNL1        0.0632
     81 H          11.5263    0.6324    0.0000 H       1  UNL1        0.0675
     82 H           9.4368    3.3641    0.0000 H       1  UNL1        0.0647
     83 H          12.9292    0.6724    0.0000 H       1  UNL1        0.0648
     84 H          11.5263    3.3324    0.0000 H       1  UNL1        0.0938
     85 H          13.7953    1.7924    0.0000 H       1  UNL1        0.0646
     86 H           6.3413   -3.2010    0.0000 H       1  UNL1        0.0938
     87 H          13.2583    3.1024    0.0000 H       1  UNL1        0.0621
     88 H           7.1075   -5.3060    0.0000 H       1  UNL1        0.0671
     89 H           5.7741    0.5193    0.0000 H       1  UNL1        0.0256
     90 H           4.9272    0.2924    0.0000 H       1  UNL1        0.0256
     91 H           5.1541   -0.5546    0.0000 H       1  UNL1        0.0256
     92 H           8.4446    4.5312    0.0000 H       1  UNL1        0.0584
     93 H           8.1720    3.7822    0.0000 H       1  UNL1        0.0584
     94 H           5.8541   -5.9643    0.0000 H       1  UNL1        0.0648
     95 H           4.6572   -5.2081    0.0000 H       1  UNL1        0.0646
     96 H           4.7137   -3.7934    0.0000 H       1  UNL1        0.0621
     97 H          10.8728    3.9567    0.0000 H       1  UNL1        0.0597
     98 H           7.0718    1.6969    0.0000 H       1  UNL1        0.2101
     99 H          14.4344    2.4454    0.0000 H       1  UNL1        0.0255
    100 H          14.6613    3.2924    0.0000 H       1  UNL1        0.0255
    101 H          13.8144    3.5193    0.0000 H       1  UNL1        0.0255
    102 H           8.7790    3.3515    0.0000 H       1  UNL1        0.0290
    103 H           9.5490    3.1452    0.0000 H       1  UNL1        0.0290
    104 H          12.9292   -0.3276    0.0000 H       1  UNL1        0.2100
    105 H          10.7084    5.4963    0.0000 H       1  UNL1        0.0290
    106 H          10.0618    5.0302    0.0000 H       1  UNL1        0.0290
    107 H          14.6613    1.2924    0.0000 H       1  UNL1        0.2100
    108 H           4.0486   -3.5917    0.0000 H       1  UNL1        0.0255
    109 H           3.3304   -4.0946    0.0000 H       1  UNL1        0.0255
    110 H           3.8332   -4.8129    0.0000 H       1  UNL1        0.0255
    111 H           7.9809    4.5747    0.0000 H       1  UNL1        0.0266
    112 H           8.2698    3.8773    0.0000 H       1  UNL1        0.0266
    113 H           9.7942   -2.8976    0.0000 H       1  UNL1        0.0410
    114 H           8.0923   -5.4796    0.0000 H       1  UNL1        0.2101
    115 H           4.2690   -2.3276    0.0000 H       1  UNL1        0.0410
    116 H           6.1181    3.0650    0.0000 H       1  UNL1        0.0377
    117 H           5.7196    2.3747    0.0000 H       1  UNL1        0.0377
    118 H          11.6123    4.3606    0.0000 H       1  UNL1        0.0266
    119 H          12.2588    4.8268    0.0000 H       1  UNL1        0.0266
    120 H           9.4129    5.2476    0.0000 H       1  UNL1        0.2095
    121 H           6.1961   -6.9040    0.0000 H       1  UNL1        0.2100
    122 H           9.1904    5.3066    0.0000 H       1  UNL1        0.0265
    123 H           8.7919    5.9968    0.0000 H       1  UNL1        0.0265
    124 H           4.0144   -5.9741    0.0000 H       1  UNL1        0.2100
    125 H           7.4082    2.3998    0.0000 H       1  UNL1        0.0270
    126 H           7.8067    3.0900    0.0000 H       1  UNL1        0.0270
    127 H           8.1522    6.3526    0.0000 H       1  UNL1        0.0265
    128 H           7.4038    6.4512    0.0000 H       1  UNL1        0.0265
    129 H           9.1836   -4.4100    0.0000 H       1  UNL1        0.0270
    130 H           9.5822   -5.1002    0.0000 H       1  UNL1        0.0270
    131 H           7.7950    3.8219    0.0000 H       1  UNL1        0.0265
    132 H           7.5062    4.5193    0.0000 H       1  UNL1        0.0265
    133 H          12.1133    6.5094    0.0000 H       1  UNL1        0.0265
    134 H          11.4668    6.0432    0.0000 H       1  UNL1        0.0265
    135 H           3.2646   -1.0427    0.0000 H       1  UNL1        0.0270
    136 H           2.4675   -1.0427    0.0000 H       1  UNL1        0.0270
    137 H           6.6938    6.2730    0.0000 H       1  UNL1        0.0265
    138 H           6.1302    5.7094    0.0000 H       1  UNL1        0.0265
    139 H           5.9271    4.9515    0.0000 H       1  UNL1        0.0265
    140 H           6.1334    4.1816    0.0000 H       1  UNL1        0.0265
    141 H          10.9703   -3.5546    0.0000 H       1  UNL1        0.0238
    142 H          11.1972   -2.7076    0.0000 H       1  UNL1        0.0238
    143 H          10.3503   -2.4807    0.0000 H       1  UNL1        0.0238
    144 H           3.1120   -3.0176    0.0000 H       1  UNL1        0.0238
    145 H           3.7320   -3.6376    0.0000 H       1  UNL1        0.0238
    146 H           4.3520   -3.0176    0.0000 H       1  UNL1        0.0238
    147 H          13.0172    5.3736    0.0000 H       1  UNL1        0.0263
    148 H          13.6637    5.8398    0.0000 H       1  UNL1        0.0263
    149 H          10.3503   -5.5546    0.0000 H       1  UNL1        0.0230
    150 H          11.1972   -5.3276    0.0000 H       1  UNL1        0.0230
    151 H          10.9703   -4.4807    0.0000 H       1  UNL1        0.0230
    152 H           1.6900   -1.4807    0.0000 H       1  UNL1        0.0230
    153 H           1.4631   -2.3276    0.0000 H       1  UNL1        0.0230
    154 H           2.3100   -2.5546    0.0000 H       1  UNL1        0.0230
    155 H          14.0382    6.6498    0.0000 H       1  UNL1        0.0230
    156 H          13.7269    7.4695    0.0000 H       1  UNL1        0.0230
    157 H          12.9072    7.1583    0.0000 H       1  UNL1        0.0230
@<TRIPOS>BOND
     1     1    22    1
     2    26     1    1
     3     2    26    1
     4     2    30    1
     5     3    27    1
     6     3    31    1
     7     4    27    1
     8     4    32    1
     9    23     5    1
    10    36     5    1
    11    24     6    1
    12     6    48    1
    13     7    25    1
    14     7    49    1
    15     8    34    1
    16     8    37    1
    17    28     9    1
    18     9    50    1
    19    10    34    1
    20    10    44    1
    21    11    36    1
    22    11    43    1
    23    29    12    1
    24    12    98    1
    25    33    13    1
    26    13   104    1
    27    35    14    1
    28    14   107    1
    29    38    15    1
    30    15   114    1
    31    16    40    1
    32    16   120    1
    33    41    17    1
    34    17   121    1
    35    42    18    1
    36    18   124    1
    37    19    48    2
    38    20    49    2
    39    21    50    2
    40    22    25    1
    41    22    27    1
    42    22    72    1
    43    23    24    1
    44    23    28    1
    45    23    73    1
    46    24    26    1
    47    24    74    1
    48    25    29    1
    49    25    75    1
    50    26    76    1
    51    27    77    1
    52    28    30    1
    53    28    78    1
    54    29    32    1
    55    29    79    1
    56    30    39    1
    57    30    80    1
    58    31    33    1
    59    31    34    1
    60    31    81    1
    61    32    40    1
    62    32    82    1
    63    33    35    1
    64    33    83    1
    65    34    84    1
    66    35    37    1
    67    35    85    1
    68    36    38    1
    69    36    86    1
    70    37    45    1
    71    37    87    1
    72    38    41    1
    73    38    88    1
    74    39    89    1
    75    39    90    1
    76    39    91    1
    77    40    92    1
    78    40    93    1
    79    41    42    1
    80    41    94    1
    81    42    43    1
    82    42    95    1
    83    43    51    1
    84    43    96    1
    85    44    46    1
    86    44    47    1
    87    44    97    1
    88    45    99    1
    89    45   100    1
    90    45   101    1
    91    46    52    1
    92    46   102    1
    93    46   103    1
    94    47    56    1
    95    47   105    1
    96    47   106    1
    97    48    53    1
    98    49    55    1
    99    50    54    1
   100    51   108    1
   101    51   109    1
   102    51   110    1
   103    52    57    1
   104    52   111    1
   105    52   112    1
   106    53    60    1
   107    53    66    1
   108    53   113    1
   109    54    63    1
   110    54    67    1
   111    54   115    1
   112    55    58    1
   113    55   116    1
   114    55   117    1
   115    56    62    1
   116    56   118    1
   117    56   119    1
   118    57    59    1
   119    57   122    1
   120    57   123    1
   121    58    61    1
   122    58   125    1
   123    58   126    1
   124    59    64    1
   125    59   127    1
   126    59   128    1
   127    60    69    1
   128    60   129    1
   129    60   130    1
   130    61    65    1
   131    61   131    1
   132    61   132    1
   133    62    68    1
   134    62   133    1
   135    62   134    1
   136    63    70    1
   137    63   135    1
   138    63   136    1
   139    64    65    1
   140    64   137    1
   141    64   138    1
   142    65   139    1
   143    65   140    1
   144    66   141    1
   145    66   142    1
   146    66   143    1
   147    67   144    1
   148    67   145    1
   149    67   146    1
   150    68    71    1
   151    68   147    1
   152    68   148    1
   153    69   149    1
   154    69   150    1
   155    69   151    1
   156    70   152    1
   157    70   153    1
   158    70   154    1
   159    71   155    1
   160    71   156    1
   161    71   157    1
