@<TRIPOS>MOLECULE
IMPHY007433
 33 35 0 0 0
SMALL
GASTEIGER

@<TRIPOS>ATOM
      1 O           2.5381   -1.6822    0.0000 O.3     1  UNL1       -0.3910
      2 O           6.0682    1.3419    0.0000 O.3     1  UNL1       -0.5053
      3 O           4.3198    1.3765    0.0000 O.2     1  UNL1       -0.2918
      4 O           7.8167    1.3765    0.0000 O.3     1  UNL1       -0.5060
      5 C           4.3083   -1.6927    0.0000 C.3     1  UNL1       -0.0003
      6 C           3.4022   -1.1789    0.0000 C.3     1  UNL1        0.0662
      7 C           5.2022   -1.1581    0.0000 C.ar    1  UNL1       -0.0303
      8 C           5.2022   -0.1581    0.0000 C.ar    1  UNL1        0.0628
      9 C           3.4022   -0.1372    0.0000 C.3     1  UNL1        0.0369
     10 C           4.3083    0.3766    0.0000 C.2     1  UNL1        0.1694
     11 C           6.0682   -1.6581    0.0000 C.ar    1  UNL1       -0.0497
     12 C           6.9343   -1.1581    0.0000 C.ar    1  UNL1       -0.0103
     13 C           6.0682    0.3419    0.0000 C.ar    1  UNL1        0.1387
     14 C           6.9343   -0.1581    0.0000 C.ar    1  UNL1        0.0656
     15 C           7.8282   -1.6927    0.0000 C.ar    1  UNL1       -0.0508
     16 C           7.8282    0.3766    0.0000 C.ar    1  UNL1        0.1283
     17 C           8.7343   -1.1789    0.0000 C.ar    1  UNL1       -0.0464
     18 C           8.7343   -0.1372    0.0000 C.ar    1  UNL1       -0.0165
     19 C           9.5984   -1.6822    0.0000 C.3     1  UNL1       -0.0396
     20 H           3.9147   -2.1717    0.0000 H       1  UNL1        0.0338
     21 H           4.7129   -2.1625    0.0000 H       1  UNL1        0.0338
     22 H           2.8647   -0.8699    0.0000 H       1  UNL1        0.0601
     23 H           3.1932    0.4464    0.0000 H       1  UNL1        0.0370
     24 H           2.7914   -0.2433    0.0000 H       1  UNL1        0.0370
     25 H           6.0682   -2.2781    0.0000 H       1  UNL1        0.0627
     26 H           7.8210   -2.3127    0.0000 H       1  UNL1        0.0626
     27 H           2.0000   -1.3743    0.0000 H       1  UNL1        0.2098
     28 H           9.2700    0.1748    0.0000 H       1  UNL1        0.0657
     29 H           5.5313    1.6519    0.0000 H       1  UNL1        0.2922
     30 H           9.2863   -2.2180    0.0000 H       1  UNL1        0.0278
     31 H          10.1341   -1.9943    0.0000 H       1  UNL1        0.0278
     32 H           9.9105   -1.1465    0.0000 H       1  UNL1        0.0278
     33 H           8.3500    1.6927    0.0000 H       1  UNL1        0.2922
@<TRIPOS>BOND
     1     6     1    1
     2     1    27    1
     3     2    13    1
     4     2    29    1
     5     3    10    2
     6     4    16    1
     7     4    33    1
     8     5     6    1
     9     5     7    1
    10     5    20    1
    11     5    21    1
    12     6     9    1
    13     6    22    1
    14     7     8   ar
    15     7    11   ar
    16     8    10    1
    17     8    13   ar
    18     9    10    1
    19     9    23    1
    20     9    24    1
    21    11    12   ar
    22    11    25    1
    23    12    14   ar
    24    12    15   ar
    25    13    14   ar
    26    14    16   ar
    27    15    17   ar
    28    15    26    1
    29    16    18   ar
    30    17    18   ar
    31    17    19    1
    32    18    28    1
    33    19    30    1
    34    19    31    1
    35    19    32    1
