@<TRIPOS>MOLECULE
IMPHY016163
 28 29 0 0 0
SMALL
GASTEIGER

@<TRIPOS>ATOM
      1 N           4.6660   -1.1900    0.0000 N.pl3   1  UNL1       -0.3349
      2 C           5.5321   -0.6900    0.0000 C.3     1  UNL1        0.0453
      3 C           5.5321    0.3100    0.0000 C.2     1  UNL1       -0.0580
      4 C           3.8000   -0.6900    0.0000 C.ar    1  UNL1        0.0352
      5 C           4.6660    0.8100    0.0000 C.2     1  UNL1       -0.0435
      6 C           3.8000    0.3100    0.0000 C.ar    1  UNL1       -0.0015
      7 C           6.5321   -0.6900    0.0000 C.3     1  UNL1       -0.0404
      8 C           6.0321   -1.5560    0.0000 C.3     1  UNL1       -0.0404
      9 C           2.9061   -1.2247    0.0000 C.ar    1  UNL1       -0.0402
     10 C           4.6660    1.8100    0.0000 C.3     1  UNL1       -0.0393
     11 C           2.9061    0.8447    0.0000 C.ar    1  UNL1       -0.0526
     12 C           2.0000   -0.7108    0.0000 C.ar    1  UNL1       -0.0600
     13 C           2.0000    0.3308    0.0000 C.ar    1  UNL1       -0.0611
     14 H           4.6660   -1.8100    0.0000 H       1  UNL1        0.1469
     15 H           6.0690    0.6200    0.0000 H       1  UNL1        0.0596
     16 H           6.5321   -1.3100    0.0000 H       1  UNL1        0.0253
     17 H           7.1521   -0.6900    0.0000 H       1  UNL1        0.0253
     18 H           6.5321   -0.0700    0.0000 H       1  UNL1        0.0253
     19 H           5.4951   -1.8660    0.0000 H       1  UNL1        0.0253
     20 H           6.3421   -2.0930    0.0000 H       1  UNL1        0.0253
     21 H           6.5690   -1.2460    0.0000 H       1  UNL1        0.0253
     22 H           2.9132   -1.8446    0.0000 H       1  UNL1        0.0636
     23 H           5.2860    1.8100    0.0000 H       1  UNL1        0.0278
     24 H           4.6660    2.4300    0.0000 H       1  UNL1        0.0278
     25 H           4.0460    1.8100    0.0000 H       1  UNL1        0.0278
     26 H           2.9132    1.4646    0.0000 H       1  UNL1        0.0624
     27 H           1.4643   -1.0229    0.0000 H       1  UNL1        0.0618
     28 H           1.4643    0.6429    0.0000 H       1  UNL1        0.0618
@<TRIPOS>BOND
     1     1     2    1
     2     1     4    1
     3     1    14    1
     4     2     3    1
     5     2     7    1
     6     2     8    1
     7     3     5    2
     8     3    15    1
     9     4     6   ar
    10     4     9   ar
    11     5     6    1
    12     5    10    1
    13     6    11   ar
    14     7    16    1
    15     7    17    1
    16     7    18    1
    17     8    19    1
    18     8    20    1
    19     8    21    1
    20     9    12   ar
    21     9    22    1
    22    10    23    1
    23    10    24    1
    24    10    25    1
    25    11    13   ar
    26    11    26    1
    27    12    13   ar
    28    12    27    1
    29    13    28    1
