@<TRIPOS>MOLECULE
IMPHY008850
 15 15 0 0 0
SMALL
GASTEIGER

@<TRIPOS>ATOM
      1 O           2.8660    1.0000    0.0000 O.3     1  UNL1       -0.4714
      2 O           4.5981   -2.0000    0.0000 O.3     1  UNL1       -0.4715
      3 O           6.3301    1.0000    0.0000 O.3     1  UNL1       -0.2863
      4 O           3.7321    2.5000    0.0000 O.2     1  UNL1       -0.2911
      5 C           3.7321   -0.5000    0.0000 C.ar    1  UNL1        0.0463
      6 C           3.7321    0.5000    0.0000 C.ar    1  UNL1        0.1434
      7 C           4.5981    1.0000    0.0000 C.ar    1  UNL1        0.1073
      8 C           4.5981   -1.0000    0.0000 C.ar    1  UNL1        0.1408
      9 C           5.4641    0.5000    0.0000 C.ar    1  UNL1        0.2044
     10 C           5.4641   -0.5000    0.0000 C.ar    1  UNL1        0.0788
     11 C           2.8660   -1.0000    0.0000 C.3     1  UNL1        0.0374
     12 C           4.5981    2.0000    0.0000 C.2     1  UNL1        0.1795
     13 C           5.4641    2.5000    0.0000 C.3     1  UNL1        0.0775
     14 C           2.0000    0.5000    0.0000 C.3     1  UNL1        0.2525
     15 C           5.4641   -2.5000    0.0000 C.3     1  UNL1        0.2525
@<TRIPOS>BOND
     1     1     6    1
     2     1    14    1
     3     2     8    1
     4     2    15    1
     5     3     9    1
     6     4    12    2
     7     5     6   ar
     8     5     8   ar
     9     5    11    1
    10     6     7   ar
    11     7     9   ar
    12     7    12    1
    13     8    10   ar
    14     9    10   ar
    15    12    13    1
