@<TRIPOS>MOLECULE
IMPHY006061
 20 20 0 0 0
SMALL
GASTEIGER

@<TRIPOS>ATOM
      1 O           2.5369   -0.0950    0.0000 O.3     1  UNL1       -0.5065
      2 O           6.0010   -2.0950    0.0000 O.3     1  UNL1       -0.5068
      3 O           5.1350    2.4050    0.0000 O.3     1  UNL1       -0.4804
      4 O           6.0010    0.9050    0.0000 O.2     1  UNL1       -0.2506
      5 C           4.2690   -0.0950    0.0000 C.ar    1  UNL1        0.0081
      6 C           4.2690    0.9050    0.0000 C.3     1  UNL1        0.0734
      7 C           3.4030   -0.5950    0.0000 C.ar    1  UNL1        0.1208
      8 C           5.1350   -0.5950    0.0000 C.ar    1  UNL1       -0.0130
      9 C           5.1350   -1.5950    0.0000 C.ar    1  UNL1        0.1174
     10 C           3.4030   -1.5950    0.0000 C.ar    1  UNL1       -0.0164
     11 C           4.2690   -2.0950    0.0000 C.ar    1  UNL1       -0.0167
     12 C           5.1350    1.4050    0.0000 C.2     1  UNL1        0.3092
     13 H           4.0569    1.4876    0.0000 H       1  UNL1        0.0427
     14 H           3.6584    0.7973    0.0000 H       1  UNL1        0.0427
     15 H           5.6720   -0.2850    0.0000 H       1  UNL1        0.0658
     16 H           2.8660   -1.9050    0.0000 H       1  UNL1        0.0655
     17 H           4.2690   -2.7150    0.0000 H       1  UNL1        0.0655
     18 H           2.0000   -0.4050    0.0000 H       1  UNL1        0.2921
     19 H           6.0010   -2.7150    0.0000 H       1  UNL1        0.2921
     20 H           5.6720    2.7150    0.0000 H       1  UNL1        0.2951
@<TRIPOS>BOND
     1     1     7    1
     2     1    18    1
     3     2     9    1
     4     2    19    1
     5     3    12    1
     6     3    20    1
     7     4    12    2
     8     5     6    1
     9     5     7   ar
    10     5     8   ar
    11     6    12    1
    12     6    13    1
    13     6    14    1
    14     7    10   ar
    15     8     9   ar
    16     8    15    1
    17     9    11   ar
    18    10    11   ar
    19    10    16    1
    20    11    17    1
