@<TRIPOS>MOLECULE
IMPHY012890
 45 48 0 0 0
SMALL
GASTEIGER

@<TRIPOS>ATOM
      1 O           8.0901   -1.4884    0.0000 O.2     1  UNL1       -0.4618
      2 O          12.5397    0.2760    0.0000 O.3     1  UNL1       -0.4526
      3 O          12.5335    1.8855    0.0000 O.3     1  UNL1       -0.4526
      4 O           6.3301    1.5463    0.0000 O.3     1  UNL1       -0.5055
      5 O           4.5981   -1.4537    0.0000 O.3     1  UNL1       -0.5062
      6 O           8.0785    1.5809    0.0000 O.2     1  UNL1       -0.2863
      7 C           7.1962    0.0463    0.0000 C.ar    1  UNL1        0.1063
      8 C           5.4641    0.0463    0.0000 C.ar    1  UNL1        0.0400
      9 C           6.3301    0.5463    0.0000 C.ar    1  UNL1        0.1381
     10 C           7.1962   -0.9537    0.0000 C.ar    1  UNL1        0.1454
     11 C           8.9962    0.0671    0.0000 C.ar    1  UNL1        0.0645
     12 C           8.0901    0.5809    0.0000 C.ar    1  UNL1        0.2037
     13 C           4.5981    0.5463    0.0000 C.3     1  UNL1       -0.0023
     14 C           9.8602    0.5704    0.0000 C.ar    1  UNL1       -0.0076
     15 C           5.4641   -0.9537    0.0000 C.ar    1  UNL1        0.1273
     16 C           6.3301   -1.4537    0.0000 C.ar    1  UNL1        0.0234
     17 C           8.9962   -0.9746    0.0000 C.ar    1  UNL1        0.1038
     18 C          10.7282    0.0738    0.0000 C.ar    1  UNL1       -0.0082
     19 C          11.5923    0.5771    0.0000 C.ar    1  UNL1        0.1668
     20 C           9.8564    1.5704    0.0000 C.ar    1  UNL1       -0.0501
     21 C          11.5884    1.5771    0.0000 C.ar    1  UNL1        0.1663
     22 C           3.7320    0.0463    0.0000 C.2     1  UNL1       -0.0807
     23 C          10.7205    2.0737    0.0000 C.ar    1  UNL1       -0.0156
     24 C           2.8660    0.5463    0.0000 C.2     1  UNL1       -0.0793
     25 C          13.1202    1.0830    0.0000 C.3     1  UNL1        0.2332
     26 C           2.0000    0.0463    0.0000 C.3     1  UNL1       -0.0440
     27 C           2.8660    1.5463    0.0000 C.3     1  UNL1       -0.0440
     28 H           4.9966    1.0212    0.0000 H       1  UNL1        0.0358
     29 H           4.1996    1.0212    0.0000 H       1  UNL1        0.0358
     30 H           6.3301   -2.0737    0.0000 H       1  UNL1        0.0691
     31 H           9.5319   -1.2866    0.0000 H       1  UNL1        0.1037
     32 H          10.7306   -0.5462    0.0000 H       1  UNL1        0.0661
     33 H           9.3183    1.8783    0.0000 H       1  UNL1        0.0625
     34 H           3.7320   -0.5737    0.0000 H       1  UNL1        0.0575
     35 H          10.7181    2.6937    0.0000 H       1  UNL1        0.0655
     36 H          13.5826    0.6700    0.0000 H       1  UNL1        0.1166
     37 H          13.5794    1.4995    0.0000 H       1  UNL1        0.1166
     38 H           5.7932    1.8563    0.0000 H       1  UNL1        0.2922
     39 H           4.5981   -2.0737    0.0000 H       1  UNL1        0.2921
     40 H           1.6900    0.5832    0.0000 H       1  UNL1        0.0274
     41 H           1.4631   -0.2637    0.0000 H       1  UNL1        0.0274
     42 H           2.3100   -0.4907    0.0000 H       1  UNL1        0.0274
     43 H           3.4860    1.5463    0.0000 H       1  UNL1        0.0274
     44 H           2.8660    2.1663    0.0000 H       1  UNL1        0.0274
     45 H           2.2460    1.5463    0.0000 H       1  UNL1        0.0274
@<TRIPOS>BOND
     1     1    10   ar
     2     1    17   ar
     3     2    19    1
     4     2    25    1
     5     3    21    1
     6     3    25    1
     7     4     9    1
     8     4    38    1
     9     5    15    1
    10     5    39    1
    11     6    12    2
    12     7     9   ar
    13     7    10   ar
    14     7    12   ar
    15     8     9   ar
    16     8    13    1
    17     8    15   ar
    18    10    16   ar
    19    11    12   ar
    20    11    14    1
    21    11    17   ar
    22    13    22    1
    23    13    28    1
    24    13    29    1
    25    14    18   ar
    26    14    20   ar
    27    15    16   ar
    28    16    30    1
    29    17    31    1
    30    18    19   ar
    31    18    32    1
    32    19    21   ar
    33    20    23   ar
    34    20    33    1
    35    21    23   ar
    36    22    24    2
    37    22    34    1
    38    23    35    1
    39    24    26    1
    40    24    27    1
    41    25    36    1
    42    25    37    1
    43    26    40    1
    44    26    41    1
    45    26    42    1
    46    27    43    1
    47    27    44    1
    48    27    45    1
