@<TRIPOS>MOLECULE
IMPHY012776
 50 55 0 0 0
SMALL
GASTEIGER

@<TRIPOS>ATOM
      1 O           5.4129    2.2308    0.0000 O.3     1  UNL1       -0.4850
      2 N           3.7578   -0.9996    0.0000 N.ar    1  UNL1       -0.3538
      3 C           3.6809    2.2308    0.0000 C.3     1  UNL1        0.0094
      4 C           2.9438    2.8979    0.0000 C.3     1  UNL1       -0.0282
      5 C           2.9326    1.8965    0.0000 C.3     1  UNL1       -0.0243
      6 C           3.6809    1.2308    0.0000 C.3     1  UNL1        0.0017
      7 C           4.5469    2.7308    0.0000 C.3     1  UNL1        0.1115
      8 C           3.3490    3.8057    0.0000 C.3     1  UNL1       -0.0457
      9 C           4.3377    3.7026    0.0000 C.3     1  UNL1       -0.0126
     10 C           4.5469    0.7308    0.0000 C.ar    1  UNL1        0.0224
     11 C           2.0000    2.2573    0.0000 C.3     1  UNL1       -0.0590
     12 C           2.5718    0.9639    0.0000 C.3     1  UNL1       -0.0590
     13 C           5.4129    3.2308    0.0000 C.3     1  UNL1       -0.0246
     14 C           5.4129    1.2308    0.0000 C.ar    1  UNL1        0.1296
     15 C           4.5308   -0.3107    0.0000 C.ar    1  UNL1        0.0545
     16 C           6.3229    0.7240    0.0000 C.ar    1  UNL1       -0.0078
     17 C           5.4289   -0.8384    0.0000 C.ar    1  UNL1        0.0081
     18 C           6.3309   -0.3176    0.0000 C.ar    1  UNL1       -0.0456
     19 C           5.2032   -1.8490    0.0000 C.ar    1  UNL1        0.0074
     20 C           7.1831    1.2340    0.0000 C.3     1  UNL1       -0.0362
     21 C           4.1725   -1.9484    0.0000 C.ar    1  UNL1        0.0475
     22 C           5.8431   -2.7172    0.0000 C.ar    1  UNL1       -0.0520
     23 C           3.7103   -2.9229    0.0000 C.ar    1  UNL1       -0.0378
     24 C           5.4035   -3.7022    0.0000 C.ar    1  UNL1       -0.0611
     25 C           4.3299   -3.8057    0.0000 C.ar    1  UNL1       -0.0598
     26 H           3.7465    2.8474    0.0000 H       1  UNL1        0.0348
     27 H           2.3382    3.0305    0.0000 H       1  UNL1        0.0310
     28 H           3.3179    0.7282    0.0000 H       1  UNL1        0.0360
     29 H           3.4777    4.4122    0.0000 H       1  UNL1        0.0269
     30 H           2.7594    3.9975    0.0000 H       1  UNL1        0.0269
     31 H           4.9542    3.7687    0.0000 H       1  UNL1        0.0304
     32 H           4.3368    4.3226    0.0000 H       1  UNL1        0.0304
     33 H           2.2237    2.8356    0.0000 H       1  UNL1        0.0235
     34 H           1.4218    2.4810    0.0000 H       1  UNL1        0.0235
     35 H           1.7763    1.6791    0.0000 H       1  UNL1        0.0235
     36 H           1.9936    1.1876    0.0000 H       1  UNL1        0.0235
     37 H           2.3481    0.3856    0.0000 H       1  UNL1        0.0235
     38 H           3.1501    0.7402    0.0000 H       1  UNL1        0.0235
     39 H           5.7229    2.6939    0.0000 H       1  UNL1        0.0268
     40 H           5.9498    3.5408    0.0000 H       1  UNL1        0.0268
     41 H           5.1029    3.7678    0.0000 H       1  UNL1        0.0268
     42 H           6.8691   -0.6255    0.0000 H       1  UNL1        0.0628
     43 H           3.1521   -0.8671    0.0000 H       1  UNL1        0.1659
     44 H           7.4993    0.7006    0.0000 H       1  UNL1        0.0279
     45 H           7.7164    1.5502    0.0000 H       1  UNL1        0.0279
     46 H           6.8669    1.7673    0.0000 H       1  UNL1        0.0279
     47 H           6.4595   -2.6506    0.0000 H       1  UNL1        0.0624
     48 H           3.0925   -2.9753    0.0000 H       1  UNL1        0.0638
     49 H           5.7656   -4.2055    0.0000 H       1  UNL1        0.0618
     50 H           4.0708   -4.3689    0.0000 H       1  UNL1        0.0618
@<TRIPOS>BOND
     1     1     7    1
     2     1    14    1
     3     2    15   ar
     4     2    21   ar
     5     2    43    1
     6     3     4    1
     7     3     6    1
     8     3     7    1
     9     3    26    1
    10     4     5    1
    11     4     8    1
    12     4    27    1
    13     5     6    1
    14     5    11    1
    15     5    12    1
    16     6    10    1
    17     6    28    1
    18     7     9    1
    19     7    13    1
    20     8     9    1
    21     8    29    1
    22     8    30    1
    23     9    31    1
    24     9    32    1
    25    10    14   ar
    26    10    15   ar
    27    11    33    1
    28    11    34    1
    29    11    35    1
    30    12    36    1
    31    12    37    1
    32    12    38    1
    33    13    39    1
    34    13    40    1
    35    13    41    1
    36    14    16   ar
    37    15    17   ar
    38    16    18   ar
    39    16    20    1
    40    17    18   ar
    41    17    19   ar
    42    18    42    1
    43    19    21   ar
    44    19    22   ar
    45    20    44    1
    46    20    45    1
    47    20    46    1
    48    21    23   ar
    49    22    24   ar
    50    22    47    1
    51    23    25   ar
    52    23    48    1
    53    24    25   ar
    54    24    49    1
    55    25    50    1
