@<TRIPOS>MOLECULE
IMPHY014100
 51 55 0 0 0
SMALL
GASTEIGER

@<TRIPOS>ATOM
      1 O           4.5204   -3.7242    0.0000 O.3     1  UNL1       -0.4837
      2 O           6.0427   -0.6444    0.0000 O.2     1  UNL1       -0.4520
      3 O           6.9608    1.9040    0.0000 O.3     1  UNL1       -0.4556
      4 O           2.5405   -0.6413    0.0000 O.3     1  UNL1       -0.5058
      5 O           7.8129    0.3525    0.0000 O.3     1  UNL1       -0.3519
      6 O           3.4446    0.8556    0.0000 O.2     1  UNL1       -0.2863
      7 O           3.3202    3.9925    0.0000 O.3     1  UNL1       -0.4914
      8 O           5.1236    5.0523    0.0000 O.3     1  UNL1       -0.4913
      9 C           5.1928   -2.1859    0.0000 C.ar    1  UNL1        0.0412
     10 C           5.9658   -2.8748    0.0000 C.3     1  UNL1        0.0204
     11 C           5.5511   -3.8236    0.0000 C.3     1  UNL1        0.1249
     12 C           5.1767   -1.1444    0.0000 C.ar    1  UNL1        0.1494
     13 C           4.2947   -2.7137    0.0000 C.ar    1  UNL1        0.1317
     14 C           4.3107   -0.6444    0.0000 C.ar    1  UNL1        0.1063
     15 C           5.1767    0.8556    0.0000 C.ar    1  UNL1        0.0774
     16 C           6.0427    0.3556    0.0000 C.ar    1  UNL1        0.1848
     17 C           4.3107    0.3556    0.0000 C.ar    1  UNL1        0.2043
     18 C           3.3926   -2.1929    0.0000 C.ar    1  UNL1        0.0228
     19 C           3.4007   -1.1513    0.0000 C.ar    1  UNL1        0.1347
     20 C           6.0578   -4.6858    0.0000 C.2     1  UNL1       -0.0395
     21 C           5.1606    1.8971    0.0000 C.ar    1  UNL1        0.0347
     22 C           6.9527    0.8624    0.0000 C.3     1  UNL1        0.2592
     23 C           6.0587    2.4248    0.0000 C.ar    1  UNL1        0.1360
     24 C           4.2087    2.4177    0.0000 C.ar    1  UNL1       -0.0049
     25 C           5.5645   -5.5556    0.0000 C.3     1  UNL1       -0.0406
     26 C           6.0670    3.5098    0.0000 C.ar    1  UNL1        0.0262
     27 C           4.1920    3.5026    0.0000 C.ar    1  UNL1        0.1623
     28 C           7.0577   -4.6781    0.0000 C.2     1  UNL1       -0.0962
     29 C           5.1274    4.0523    0.0000 C.ar    1  UNL1        0.1650
     30 C           3.3087    4.9925    0.0000 C.3     1  UNL1        0.0790
     31 C           5.9876    5.5556    0.0000 C.3     1  UNL1        0.0790
     32 H           6.5047   -3.1815    0.0000 H       1  UNL1        0.0355
     33 H           6.3274   -2.3712    0.0000 H       1  UNL1        0.0355
     34 H           5.2177   -4.3464    0.0000 H       1  UNL1        0.0784
     35 H           2.8545   -2.5008    0.0000 H       1  UNL1        0.0691
     36 H           6.9444    0.2425    0.0000 H       1  UNL1        0.1143
     37 H           3.6778    2.0974    0.0000 H       1  UNL1        0.0663
     38 H           5.0252   -5.2498    0.0000 H       1  UNL1        0.0275
     39 H           5.2586   -6.0950    0.0000 H       1  UNL1        0.0275
     40 H           6.1038   -5.8615    0.0000 H       1  UNL1        0.0275
     41 H           6.6052    3.8177    0.0000 H       1  UNL1        0.0692
     42 H           7.3719   -5.2126    0.0000 H       1  UNL1        0.0535
     43 H           7.3636   -4.1388    0.0000 H       1  UNL1        0.0535
     44 H           2.0000   -0.9450    0.0000 H       1  UNL1        0.2922
     45 H           8.3534    0.6562    0.0000 H       1  UNL1        0.2140
     46 H           3.9286    4.9996    0.0000 H       1  UNL1        0.0660
     47 H           3.3015    5.6124    0.0000 H       1  UNL1        0.0660
     48 H           2.6887    4.9853    0.0000 H       1  UNL1        0.0660
     49 H           6.2997    5.0199    0.0000 H       1  UNL1        0.0660
     50 H           6.5234    5.8677    0.0000 H       1  UNL1        0.0660
     51 H           5.6756    6.0914    0.0000 H       1  UNL1        0.0660
@<TRIPOS>BOND
     1     1    11    1
     2     1    13    1
     3     2    12   ar
     4     2    16   ar
     5     3    22    1
     6     3    23    1
     7     4    19    1
     8     4    44    1
     9     5    22    1
    10     5    45    1
    11     6    17    2
    12     7    27    1
    13     7    30    1
    14     8    29    1
    15     8    31    1
    16     9    10    1
    17     9    12   ar
    18     9    13   ar
    19    10    11    1
    20    10    32    1
    21    10    33    1
    22    11    20    1
    23    11    34    1
    24    12    14   ar
    25    13    18   ar
    26    14    17   ar
    27    14    19   ar
    28    15    16   ar
    29    15    17   ar
    30    15    21    1
    31    16    22    1
    32    18    19   ar
    33    18    35    1
    34    20    25    1
    35    20    28    2
    36    21    23   ar
    37    21    24   ar
    38    22    36    1
    39    23    26   ar
    40    24    27   ar
    41    24    37    1
    42    25    38    1
    43    25    39    1
    44    25    40    1
    45    26    29   ar
    46    26    41    1
    47    27    29   ar
    48    28    42    1
    49    28    43    1
    50    30    46    1
    51    30    47    1
    52    30    48    1
    53    31    49    1
    54    31    50    1
    55    31    51    1
