@<TRIPOS>MOLECULE
IMPHY001863
 74 78 0 0 0
SMALL
GASTEIGER

@<TRIPOS>ATOM
      1 O           2.9999   -2.2851    0.0000 O.3     1  UNL1       -0.4675
      2 O           3.0200   -0.5532    0.0000 O.2     1  UNL1       -0.2502
      3 O          11.6907   -1.4899    0.0000 O.2     1  UNL1       -0.2872
      4 O          10.8151    3.2104    0.0000 O.3     1  UNL1       -0.5033
      5 O          12.6345    2.1786    0.0000 O.3     1  UNL1       -0.5028
      6 O          13.5025    0.5836    0.0000 O.2     1  UNL1       -0.2956
      7 C           7.2946   -0.9658    0.0000 C.3     1  UNL1       -0.0196
      8 C           6.3846   -1.4726    0.0000 C.3     1  UNL1       -0.0284
      9 C           8.1606   -1.4658    0.0000 C.3     1  UNL1       -0.0042
     10 C           6.3765   -2.5142    0.0000 C.3     1  UNL1       -0.0286
     11 C           8.1766   -2.5073    0.0000 C.3     1  UNL1       -0.0429
     12 C           7.2786   -3.0350    0.0000 C.3     1  UNL1       -0.0465
     13 C           7.2946    0.0342    0.0000 C.3     1  UNL1       -0.0455
     14 C           5.4577   -0.9086    0.0000 C.3     1  UNL1       -0.0336
     15 C           9.0266   -0.9658    0.0000 C.2     1  UNL1       -0.0493
     16 C           5.4411   -3.0640    0.0000 C.3     1  UNL1       -0.0464
     17 C           9.0266    0.0342    0.0000 C.3     1  UNL1        0.0156
     18 C           4.5098   -1.4365    0.0000 C.3     1  UNL1        0.0653
     19 C           8.1606    0.5342    0.0000 C.3     1  UNL1       -0.0393
     20 C           6.4285   -0.4658    0.0000 C.3     1  UNL1       -0.0585
     21 C           4.5015   -2.5215    0.0000 C.3     1  UNL1       -0.0370
     22 C           9.0266   -1.9658    0.0000 C.3     1  UNL1       -0.0553
     23 C           6.3688   -3.5142    0.0000 C.3     1  UNL1       -0.0593
     24 C           9.9206    0.5689    0.0000 C.ar    1  UNL1       -0.0223
     25 C           9.9206   -1.5004    0.0000 C.2     1  UNL1       -0.0137
     26 C           9.0266    1.0342    0.0000 C.3     1  UNL1       -0.0517
     27 C           4.0199   -0.5647    0.0000 C.3     1  UNL1       -0.0494
     28 C           3.5099   -1.4249    0.0000 C.2     1  UNL1        0.3128
     29 C          10.8266    0.0550    0.0000 C.ar    1  UNL1        0.0396
     30 C          10.8266   -0.9866    0.0000 C.2     1  UNL1        0.1871
     31 C           9.8955    1.6536    0.0000 C.ar    1  UNL1       -0.0118
     32 C          11.7704    0.5903    0.0000 C.ar    1  UNL1        0.0703
     33 C          10.8266    2.2105    0.0000 C.ar    1  UNL1        0.1593
     34 C          11.7704    1.6753    0.0000 C.ar    1  UNL1        0.1693
     35 C           2.0000   -2.2736    0.0000 C.3     1  UNL1        0.0817
     36 C          12.6345    0.0869    0.0000 C.2     1  UNL1        0.1545
     37 H           7.1157   -1.9061    0.0000 H       1  UNL1        0.0312
     38 H           8.3947   -3.0877    0.0000 H       1  UNL1        0.0274
     39 H           8.7858   -2.3918    0.0000 H       1  UNL1        0.0274
     40 H           6.8813   -3.5110    0.0000 H       1  UNL1        0.0271
     41 H           7.6796   -3.5079    0.0000 H       1  UNL1        0.0271
     42 H           7.0825    0.6168    0.0000 H       1  UNL1        0.0271
     43 H           6.6840   -0.0734    0.0000 H       1  UNL1        0.0271
     44 H           5.8659   -0.4419    0.0000 H       1  UNL1        0.0279
     45 H           5.0678   -0.4265    0.0000 H       1  UNL1        0.0279
     46 H           5.0438   -3.5399    0.0000 H       1  UNL1        0.0271
     47 H           5.8421   -3.5368    0.0000 H       1  UNL1        0.0271
     48 H           8.5591    1.0092    0.0000 H       1  UNL1        0.0277
     49 H           7.7621    1.0092    0.0000 H       1  UNL1        0.0277
     50 H           6.7385    0.0711    0.0000 H       1  UNL1        0.0235
     51 H           5.8916   -0.1558    0.0000 H       1  UNL1        0.0235
     52 H           6.1185   -1.0027    0.0000 H       1  UNL1        0.0235
     53 H           3.8915   -2.4107    0.0000 H       1  UNL1        0.0276
     54 H           4.2879   -3.1035    0.0000 H       1  UNL1        0.0276
     55 H           8.7166   -2.5027    0.0000 H       1  UNL1        0.0238
     56 H           9.5636   -2.2758    0.0000 H       1  UNL1        0.0238
     57 H           9.3366   -1.4288    0.0000 H       1  UNL1        0.0238
     58 H           5.7488   -3.5094    0.0000 H       1  UNL1        0.0235
     59 H           6.3640   -4.1342    0.0000 H       1  UNL1        0.0235
     60 H           6.9888   -3.5190    0.0000 H       1  UNL1        0.0235
     61 H           9.9134   -2.1204    0.0000 H       1  UNL1        0.0656
     62 H           9.6466    1.0342    0.0000 H       1  UNL1        0.0241
     63 H           9.0266    1.6542    0.0000 H       1  UNL1        0.0241
     64 H           8.4066    1.0342    0.0000 H       1  UNL1        0.0241
     65 H           4.5604   -0.2610    0.0000 H       1  UNL1        0.0240
     66 H           3.7161   -0.0243    0.0000 H       1  UNL1        0.0240
     67 H           3.4794   -0.8685    0.0000 H       1  UNL1        0.0240
     68 H           9.3527    1.9532    0.0000 H       1  UNL1        0.0658
     69 H           2.0072   -1.6536    0.0000 H       1  UNL1        0.0661
     70 H           1.3800   -2.2664    0.0000 H       1  UNL1        0.0661
     71 H           1.9928   -2.8935    0.0000 H       1  UNL1        0.0661
     72 H          12.6321   -0.5331    0.0000 H       1  UNL1        0.1083
     73 H          10.2746    3.5142    0.0000 H       1  UNL1        0.2923
     74 H          12.6321    2.7986    0.0000 H       1  UNL1        0.2923
@<TRIPOS>BOND
     1     1    28    1
     2     1    35    1
     3     2    28    2
     4     3    30    2
     5     4    33    1
     6     4    73    1
     7     5    34    1
     8     5    74    1
     9     6    36    2
    10     7     8    1
    11     7     9    1
    12     7    13    1
    13     7    20    1
    14     8    10    1
    15     8    14    1
    16     8    37    1
    17     9    11    1
    18     9    15    1
    19     9    22    1
    20    10    12    1
    21    10    16    1
    22    10    23    1
    23    11    12    1
    24    11    38    1
    25    11    39    1
    26    12    40    1
    27    12    41    1
    28    13    19    1
    29    13    42    1
    30    13    43    1
    31    14    18    1
    32    14    44    1
    33    14    45    1
    34    15    17    1
    35    15    25    2
    36    16    21    1
    37    16    46    1
    38    16    47    1
    39    17    19    1
    40    17    24    1
    41    17    26    1
    42    18    21    1
    43    18    27    1
    44    18    28    1
    45    19    48    1
    46    19    49    1
    47    20    50    1
    48    20    51    1
    49    20    52    1
    50    21    53    1
    51    21    54    1
    52    22    55    1
    53    22    56    1
    54    22    57    1
    55    23    58    1
    56    23    59    1
    57    23    60    1
    58    24    29   ar
    59    24    31   ar
    60    25    30    1
    61    25    61    1
    62    26    62    1
    63    26    63    1
    64    26    64    1
    65    27    65    1
    66    27    66    1
    67    27    67    1
    68    29    30    1
    69    29    32   ar
    70    31    33   ar
    71    31    68    1
    72    32    34   ar
    73    32    36    1
    74    33    34   ar
    75    35    69    1
    76    35    70    1
    77    35    71    1
    78    36    72    1
