@<TRIPOS>MOLECULE
IMPHY010479
 42 43 0 0 0
SMALL
GASTEIGER

@<TRIPOS>ATOM
      1 O           2.5369    1.2500    0.0000 O.3     1  UNL1       -0.3866
      2 O           4.2690   -0.7500    0.0000 O.3     1  UNL1       -0.3886
      3 O           6.8671    1.7500    0.0000 O.3     1  UNL1       -0.4940
      4 O           5.1350   -1.2500    0.0000 O.3     1  UNL1       -0.4946
      5 O           8.6270   -1.2847    0.0000 O.2     1  UNL1       -0.4219
      6 O          10.3972   -1.2741    0.0000 O.2     1  UNL1       -0.2452
      7 C           3.4030    0.7500    0.0000 C.3     1  UNL1        0.0865
      8 C           4.2690    0.2500    0.0000 C.3     1  UNL1        0.0875
      9 C           5.1350    0.7500    0.0000 C.3     1  UNL1        0.0081
     10 C           6.0010    0.2500    0.0000 C.ar    1  UNL1        0.0392
     11 C           2.9030   -0.1160    0.0000 C.3     1  UNL1       -0.0339
     12 C           3.9030    1.6160    0.0000 C.3     1  UNL1       -0.0339
     13 C           6.8671    0.7500    0.0000 C.ar    1  UNL1        0.1374
     14 C           6.0010   -0.7500    0.0000 C.ar    1  UNL1        0.1303
     15 C           7.7331    0.2500    0.0000 C.ar    1  UNL1        0.0597
     16 C           7.7331   -0.7500    0.0000 C.ar    1  UNL1        0.1460
     17 C           6.8671   -1.2500    0.0000 C.ar    1  UNL1        0.0236
     18 C           8.6270    0.7847    0.0000 C.ar    1  UNL1       -0.0408
     19 C           9.5331    0.2708    0.0000 C.ar    1  UNL1        0.0237
     20 C           9.5331   -0.7708    0.0000 C.ar    1  UNL1        0.3372
     21 C           7.7331    2.2500    0.0000 C.3     1  UNL1        0.0788
     22 C           5.1350   -2.2500    0.0000 C.3     1  UNL1        0.0788
     23 H           4.8059   -0.0600    0.0000 H       1  UNL1        0.0625
     24 H           5.5335    1.2250    0.0000 H       1  UNL1        0.0341
     25 H           4.7365    1.2250    0.0000 H       1  UNL1        0.0341
     26 H           2.3660    0.1940    0.0000 H       1  UNL1        0.0258
     27 H           2.5930   -0.6530    0.0000 H       1  UNL1        0.0258
     28 H           3.4399   -0.4260    0.0000 H       1  UNL1        0.0258
     29 H           4.4399    1.3060    0.0000 H       1  UNL1        0.0258
     30 H           4.2130    2.1530    0.0000 H       1  UNL1        0.0258
     31 H           3.3660    1.9260    0.0000 H       1  UNL1        0.0258
     32 H           3.7320   -1.0600    0.0000 H       1  UNL1        0.2099
     33 H           2.0000    0.9400    0.0000 H       1  UNL1        0.2102
     34 H           6.8671   -1.8700    0.0000 H       1  UNL1        0.0691
     35 H           8.6199    1.4046    0.0000 H       1  UNL1        0.0628
     36 H          10.0688    0.5829    0.0000 H       1  UNL1        0.0689
     37 H           8.0431    1.7131    0.0000 H       1  UNL1        0.0660
     38 H           8.2700    2.5600    0.0000 H       1  UNL1        0.0660
     39 H           7.4231    2.7869    0.0000 H       1  UNL1        0.0660
     40 H           4.5150   -2.2500    0.0000 H       1  UNL1        0.0660
     41 H           5.1350   -2.8700    0.0000 H       1  UNL1        0.0660
     42 H           5.7550   -2.2500    0.0000 H       1  UNL1        0.0660
@<TRIPOS>BOND
     1     1     7    1
     2     1    33    1
     3     8     2    1
     4     2    32    1
     5     3    13    1
     6     3    21    1
     7     4    14    1
     8     4    22    1
     9     5    16   ar
    10     5    20   ar
    11     6    20    2
    12     7     8    1
    13     7    11    1
    14     7    12    1
    15     8     9    1
    16     8    23    1
    17     9    10    1
    18     9    24    1
    19     9    25    1
    20    10    13   ar
    21    10    14   ar
    22    11    26    1
    23    11    27    1
    24    11    28    1
    25    12    29    1
    26    12    30    1
    27    12    31    1
    28    13    15   ar
    29    14    17   ar
    30    15    16   ar
    31    15    18   ar
    32    16    17   ar
    33    17    34    1
    34    18    19   ar
    35    18    35    1
    36    19    20   ar
    37    19    36    1
    38    21    37    1
    39    21    38    1
    40    21    39    1
    41    22    40    1
    42    22    41    1
    43    22    42    1
