@<TRIPOS>MOLECULE
IMPHY006737
 121 128 0 0 0
SMALL
GASTEIGER

@<TRIPOS>ATOM
      1 O          18.3182    1.5438    0.0000 O.3     1  UNL1       -0.3876
      2 O          20.8423    0.0340    0.0000 O.3     1  UNL1       -0.4628
      3 O          12.9292    2.6169    0.0000 O.3     1  UNL1       -0.3480
      4 O          19.5591   -3.3344    0.0000 O.3     1  UNL1       -0.4571
      5 O          11.1972    2.6169    0.0000 O.3     1  UNL1       -0.3456
      6 O          21.3186   -3.6169    0.0000 O.2     1  UNL1       -0.2456
      7 O          22.3456    0.8942    0.0000 O.2     1  UNL1       -0.2546
      8 O          11.1972   -0.3831    0.0000 O.3     1  UNL1       -0.3890
      9 O           9.4651    0.6169    0.0000 O.3     1  UNL1       -0.3429
     10 O           8.5991    2.1169    0.0000 O.3     1  UNL1       -0.3456
     11 O           6.0010    2.6169    0.0000 O.3     1  UNL1       -0.3429
     12 O           6.0010    0.6169    0.0000 O.3     1  UNL1       -0.3890
     13 O           5.1350    1.1169    0.0000 O.3     1  UNL1       -0.3456
     14 O           2.5369    2.6169    0.0000 O.3     1  UNL1       -0.3890
     15 O           2.5369    0.6169    0.0000 O.3     1  UNL1       -0.3867
     16 C          18.3144    0.5438    0.0000 C.3     1  UNL1        0.0785
     17 C          17.4503    1.0471    0.0000 C.3     1  UNL1       -0.0081
     18 C          18.3105   -0.4562    0.0000 C.3     1  UNL1        0.0071
     19 C          16.5823    0.5504    0.0000 C.3     1  UNL1       -0.0299
     20 C          15.6743    1.0608    0.0000 C.3     1  UNL1       -0.0259
     21 C          15.6703    2.1024    0.0000 C.3     1  UNL1       -0.0330
     22 C          19.2556   -0.7646    0.0000 C.3     1  UNL1        0.0290
     23 C          17.4426   -0.9529    0.0000 C.3     1  UNL1       -0.0441
     24 C          16.5785   -0.4496    0.0000 C.3     1  UNL1       -0.0488
     25 C          19.2618    0.8448    0.0000 C.3     1  UNL1        0.0146
     26 C          17.4704    2.0885    0.0000 C.3     1  UNL1       -0.0470
     27 C          19.8423    0.0379    0.0000 C.3     1  UNL1        0.1126
     28 C          16.5744    2.6197    0.0000 C.3     1  UNL1       -0.0493
     29 C          14.7453    0.5003    0.0000 C.3     1  UNL1       -0.0448
     30 C          18.3067   -1.4562    0.0000 C.3     1  UNL1       -0.0563
     31 C          14.7370    2.6557    0.0000 C.3     1  UNL1       -0.0232
     32 C          15.6782    0.0608    0.0000 C.3     1  UNL1       -0.0590
     33 C          13.7994    1.0319    0.0000 C.3     1  UNL1       -0.0260
     34 C          13.7953    2.1169    0.0000 C.3     1  UNL1        0.0620
     35 C          19.5626   -1.7163    0.0000 C.2     1  UNL1       -0.0187
     36 C          18.9731   -2.5241    0.0000 C.3     1  UNL1        0.1148
     37 C          20.5130   -2.0274    0.0000 C.2     1  UNL1        0.0253
     38 C          20.5108   -3.0274    0.0000 C.2     1  UNL1        0.3323
     39 C          21.3456    0.8981    0.0000 C.2     1  UNL1        0.2945
     40 C          12.0632    2.1169    0.0000 C.3     1  UNL1        0.1624
     41 C          12.0632    1.1169    0.0000 C.3     1  UNL1        0.0270
     42 C          11.1972    0.6169    0.0000 C.3     1  UNL1        0.0884
     43 C          10.3312    2.1169    0.0000 C.3     1  UNL1        0.0875
     44 C          10.3312    1.1169    0.0000 C.3     1  UNL1        0.1134
     45 C           9.4651    2.6169    0.0000 C.3     1  UNL1       -0.0361
     46 C           8.5991    1.1169    0.0000 C.3     1  UNL1        0.1626
     47 C           7.7331    0.6169    0.0000 C.3     1  UNL1        0.0270
     48 C           6.8671    1.1169    0.0000 C.3     1  UNL1        0.0884
     49 C           7.7331    2.6169    0.0000 C.3     1  UNL1        0.0875
     50 C           6.8671    2.1169    0.0000 C.3     1  UNL1        0.1134
     51 C           7.7331    3.6169    0.0000 C.3     1  UNL1       -0.0361
     52 C           5.1350    2.1169    0.0000 C.3     1  UNL1        0.1626
     53 C           4.2690    2.6169    0.0000 C.3     1  UNL1        0.0270
     54 C           3.4030    2.1169    0.0000 C.3     1  UNL1        0.0881
     55 C           4.2690    0.6169    0.0000 C.3     1  UNL1        0.0871
     56 C           3.4030    1.1169    0.0000 C.3     1  UNL1        0.1070
     57 C           4.2690   -0.3831    0.0000 C.3     1  UNL1       -0.0361
     58 H          18.1913    1.4635    0.0000 H       1  UNL1        0.0331
     59 H          17.3168    0.1226    0.0000 H       1  UNL1        0.0310
     60 H          15.6768    2.9524    0.0000 H       1  UNL1        0.0307
     61 H          19.8677   -0.8632    0.0000 H       1  UNL1        0.0389
     62 H          17.0422   -1.4263    0.0000 H       1  UNL1        0.0272
     63 H          17.8393   -1.4294    0.0000 H       1  UNL1        0.0272
     64 H          15.9683   -0.3395    0.0000 H       1  UNL1        0.0268
     65 H          16.3642   -1.0314    0.0000 H       1  UNL1        0.0268
     66 H          19.8003    1.1520    0.0000 H       1  UNL1        0.0329
     67 H          19.0129    1.4127    0.0000 H       1  UNL1        0.0329
     68 H          18.0791    1.9707    0.0000 H       1  UNL1        0.0269
     69 H          17.6906    2.6681    0.0000 H       1  UNL1        0.0269
     70 H          20.1261    0.5891    0.0000 H       1  UNL1        0.0741
     71 H          16.9771    3.0911    0.0000 H       1  UNL1        0.0268
     72 H          16.1789    3.0972    0.0000 H       1  UNL1        0.0268
     73 H          14.3535    0.0197    0.0000 H       1  UNL1        0.0271
     74 H          15.1517    0.0321    0.0000 H       1  UNL1        0.0271
     75 H          17.6867   -1.4538    0.0000 H       1  UNL1        0.0236
     76 H          18.3043   -2.0762    0.0000 H       1  UNL1        0.0236
     77 H          18.9267   -1.4586    0.0000 H       1  UNL1        0.0236
     78 H          15.1398    3.1271    0.0000 H       1  UNL1        0.0293
     79 H          14.3415    3.1332    0.0000 H       1  UNL1        0.0293
     80 H          15.0582    0.0584    0.0000 H       1  UNL1        0.0235
     81 H          15.6805   -0.5592    0.0000 H       1  UNL1        0.0235
     82 H          16.2981    0.0632    0.0000 H       1  UNL1        0.0235
     83 H          13.1882    1.1356    0.0000 H       1  UNL1        0.0290
     84 H          13.5926    0.4474    0.0000 H       1  UNL1        0.0290
     85 H          13.7965    2.7369    0.0000 H       1  UNL1        0.0597
     86 H          18.8564    1.8517    0.0000 H       1  UNL1        0.2102
     87 H          18.5132   -2.1082    0.0000 H       1  UNL1        0.0746
     88 H          18.5114   -2.9380    0.0000 H       1  UNL1        0.0746
     89 H          21.0153   -1.6640    0.0000 H       1  UNL1        0.0690
     90 H          21.0377    1.4362    0.0000 H       1  UNL1        0.1512
     91 H          12.6002    1.8069    0.0000 H       1  UNL1        0.0910
     92 H          12.2753    0.5343    0.0000 H       1  UNL1        0.0340
     93 H          12.6738    1.2245    0.0000 H       1  UNL1        0.0340
     94 H          11.7341    0.3069    0.0000 H       1  UNL1        0.0622
     95 H          10.3312    2.7369    0.0000 H       1  UNL1        0.0621
     96 H           9.7942    1.4269    0.0000 H       1  UNL1        0.0649
     97 H           9.7751    3.1538    0.0000 H       1  UNL1        0.0255
     98 H           8.9282    2.9269    0.0000 H       1  UNL1        0.0255
     99 H           9.1551    2.0799    0.0000 H       1  UNL1        0.0255
    100 H          11.7341   -0.6931    0.0000 H       1  UNL1        0.2099
    101 H           8.5991    0.4969    0.0000 H       1  UNL1        0.0910
    102 H           7.3346    0.1419    0.0000 H       1  UNL1        0.0340
    103 H           8.1316    0.1419    0.0000 H       1  UNL1        0.0340
    104 H           6.3301    1.4269    0.0000 H       1  UNL1        0.0622
    105 H           8.2700    2.9269    0.0000 H       1  UNL1        0.0621
    106 H           6.8671    2.7369    0.0000 H       1  UNL1        0.0649
    107 H           8.3531    3.6169    0.0000 H       1  UNL1        0.0255
    108 H           7.7331    4.2369    0.0000 H       1  UNL1        0.0255
    109 H           7.1131    3.6169    0.0000 H       1  UNL1        0.0255
    110 H           6.0010   -0.0031    0.0000 H       1  UNL1        0.2099
    111 H           5.1350    2.7369    0.0000 H       1  UNL1        0.0910
    112 H           4.6675    3.0918    0.0000 H       1  UNL1        0.0340
    113 H           3.8705    3.0918    0.0000 H       1  UNL1        0.0340
    114 H           3.4030    2.7369    0.0000 H       1  UNL1        0.0621
    115 H           4.8059    0.3069    0.0000 H       1  UNL1        0.0621
    116 H           2.8660    1.4269    0.0000 H       1  UNL1        0.0645
    117 H           3.6490   -0.3831    0.0000 H       1  UNL1        0.0255
    118 H           4.2690   -1.0031    0.0000 H       1  UNL1        0.0255
    119 H           4.8890   -0.3831    0.0000 H       1  UNL1        0.0255
    120 H           2.5369    3.2369    0.0000 H       1  UNL1        0.2099
    121 H           2.0000    0.9269    0.0000 H       1  UNL1        0.2100
@<TRIPOS>BOND
     1    16     1    1
     2     1    86    1
     3    27     2    1
     4     2    39    1
     5    34     3    1
     6    40     3    1
     7     4    36    1
     8     4    38    1
     9     5    40    1
    10     5    43    1
    11     6    38    2
    12     7    39    2
    13    42     8    1
    14     8   100    1
    15    44     9    1
    16    46     9    1
    17    10    46    1
    18    10    49    1
    19    50    11    1
    20    52    11    1
    21    48    12    1
    22    12   110    1
    23    13    52    1
    24    13    55    1
    25    54    14    1
    26    14   120    1
    27    56    15    1
    28    15   121    1
    29    16    17    1
    30    16    18    1
    31    16    25    1
    32    17    19    1
    33    17    26    1
    34    17    58    1
    35    18    22    1
    36    18    23    1
    37    18    30    1
    38    19    20    1
    39    19    24    1
    40    19    59    1
    41    20    21    1
    42    20    29    1
    43    20    32    1
    44    21    28    1
    45    21    31    1
    46    21    60    1
    47    22    27    1
    48    22    35    1
    49    22    61    1
    50    23    24    1
    51    23    62    1
    52    23    63    1
    53    24    64    1
    54    24    65    1
    55    25    27    1
    56    25    66    1
    57    25    67    1
    58    26    28    1
    59    26    68    1
    60    26    69    1
    61    27    70    1
    62    28    71    1
    63    28    72    1
    64    29    33    1
    65    29    73    1
    66    29    74    1
    67    30    75    1
    68    30    76    1
    69    30    77    1
    70    31    34    1
    71    31    78    1
    72    31    79    1
    73    32    80    1
    74    32    81    1
    75    32    82    1
    76    33    34    1
    77    33    83    1
    78    33    84    1
    79    34    85    1
    80    35    36    1
    81    35    37    2
    82    36    87    1
    83    36    88    1
    84    37    38    1
    85    37    89    1
    86    39    90    1
    87    40    41    1
    88    40    91    1
    89    41    42    1
    90    41    92    1
    91    41    93    1
    92    42    44    1
    93    42    94    1
    94    43    44    1
    95    43    45    1
    96    43    95    1
    97    44    96    1
    98    45    97    1
    99    45    98    1
   100    45    99    1
   101    46    47    1
   102    46   101    1
   103    47    48    1
   104    47   102    1
   105    47   103    1
   106    48    50    1
   107    48   104    1
   108    49    50    1
   109    49    51    1
   110    49   105    1
   111    50   106    1
   112    51   107    1
   113    51   108    1
   114    51   109    1
   115    52    53    1
   116    52   111    1
   117    53    54    1
   118    53   112    1
   119    53   113    1
   120    54    56    1
   121    54   114    1
   122    55    56    1
   123    55    57    1
   124    55   115    1
   125    56   116    1
   126    57   117    1
   127    57   118    1
   128    57   119    1
