@<TRIPOS>MOLECULE
IMPHY012554
 31 34 0 0 0
SMALL
GASTEIGER

@<TRIPOS>ATOM
      1 O           2.5836    0.3820    0.0000 O.3     1  UNL1       -0.4489
      2 O           2.5836   -1.2274    0.0000 O.3     1  UNL1       -0.4524
      3 O           4.3958    1.5773    0.0000 O.3     1  UNL1       -0.4906
      4 O           6.1443    1.6119    0.0000 O.2     1  UNL1       -0.2864
      5 N           6.1558   -1.4574    0.0000 N.ar    1  UNL1       -0.3538
      6 C           5.2619    0.0773    0.0000 C.ar    1  UNL1        0.0910
      7 C           5.2619   -0.9227    0.0000 C.ar    1  UNL1        0.0578
      8 C           4.3958    0.5773    0.0000 C.ar    1  UNL1        0.1781
      9 C           3.5298    0.0773    0.0000 C.ar    1  UNL1        0.2084
     10 C           3.5298   -0.9227    0.0000 C.ar    1  UNL1        0.1719
     11 C           7.0619    0.0981    0.0000 C.ar    1  UNL1        0.0457
     12 C           7.0619   -0.9435    0.0000 C.ar    1  UNL1        0.0506
     13 C           6.1558    0.6120    0.0000 C.ar    1  UNL1        0.2007
     14 C           4.3958   -1.4227    0.0000 C.ar    1  UNL1        0.0081
     15 C           2.0000   -0.4227    0.0000 C.3     1  UNL1        0.2334
     16 C           7.9930    0.6550    0.0000 C.ar    1  UNL1       -0.0489
     17 C           7.9930   -1.5004    0.0000 C.ar    1  UNL1       -0.0377
     18 C           8.9368    0.1198    0.0000 C.ar    1  UNL1       -0.0610
     19 C           8.9368   -0.9652    0.0000 C.ar    1  UNL1       -0.0598
     20 C           3.5298    2.0773    0.0000 C.3     1  UNL1        0.0790
     21 H           4.3958   -2.0427    0.0000 H       1  UNL1        0.0676
     22 H           6.1486   -2.0773    0.0000 H       1  UNL1        0.1659
     23 H           1.5391   -0.0080    0.0000 H       1  UNL1        0.1166
     24 H           1.5391   -0.8374    0.0000 H       1  UNL1        0.1166
     25 H           7.9859    1.2750    0.0000 H       1  UNL1        0.0625
     26 H           7.9859   -2.1204    0.0000 H       1  UNL1        0.0638
     27 H           9.4726    0.4319    0.0000 H       1  UNL1        0.0618
     28 H           9.4726   -1.2772    0.0000 H       1  UNL1        0.0618
     29 H           3.8398    2.6143    0.0000 H       1  UNL1        0.0660
     30 H           2.9929    2.3873    0.0000 H       1  UNL1        0.0660
     31 H           3.2198    1.5404    0.0000 H       1  UNL1        0.0660
@<TRIPOS>BOND
     1     1     9    1
     2     1    15    1
     3     2    10    1
     4     2    15    1
     5     3     8    1
     6     3    20    1
     7     4    13    2
     8     5     7   ar
     9     5    12   ar
    10     5    22    1
    11     6     7   ar
    12     6     8   ar
    13     6    13   ar
    14     7    14   ar
    15     8     9   ar
    16     9    10   ar
    17    10    14   ar
    18    11    12   ar
    19    11    13   ar
    20    11    16   ar
    21    12    17   ar
    22    14    21    1
    23    15    23    1
    24    15    24    1
    25    16    18   ar
    26    16    25    1
    27    17    19   ar
    28    17    26    1
    29    18    19   ar
    30    18    27    1
    31    19    28    1
    32    20    29    1
    33    20    30    1
    34    20    31    1
