@<TRIPOS>MOLECULE
IMPHY016253
 15 15 0 0 0
SMALL
GASTEIGER

@<TRIPOS>ATOM
      1 O           2.0000   -0.0093    0.0000 O.2     1  UNL1       -0.2924
      2 C           3.2601   -1.2694    0.0000 C.3     1  UNL1        0.0136
      3 C           4.2601   -1.2694    0.0000 C.3     1  UNL1       -0.0271
      4 C           3.7601    0.2694    0.0000 C.2     1  UNL1       -0.0120
      5 C           2.9511   -0.3184    0.0000 C.2     1  UNL1        0.1590
      6 C           4.5691   -0.3184    0.0000 C.2     1  UNL1       -0.0774
      7 C           3.7601    1.2694    0.0000 C.3     1  UNL1       -0.0367
      8 H           2.6536   -1.3983    0.0000 H       1  UNL1        0.0348
      9 H           3.3249   -1.8860    0.0000 H       1  UNL1        0.0348
     10 H           4.1953   -1.8860    0.0000 H       1  UNL1        0.0312
     11 H           4.8665   -1.3983    0.0000 H       1  UNL1        0.0312
     12 H           5.1588   -0.1268    0.0000 H       1  UNL1        0.0576
     13 H           4.3801    1.2694    0.0000 H       1  UNL1        0.0278
     14 H           3.7601    1.8894    0.0000 H       1  UNL1        0.0278
     15 H           3.1401    1.2694    0.0000 H       1  UNL1        0.0278
@<TRIPOS>BOND
     1     1     5    2
     2     2     3    1
     3     2     5    1
     4     2     8    1
     5     2     9    1
     6     3     6    1
     7     3    10    1
     8     3    11    1
     9     4     5    1
    10     4     6    2
    11     4     7    1
    12     6    12    1
    13     7    13    1
    14     7    14    1
    15     7    15    1
