@<TRIPOS>MOLECULE
IMPHY011222
 64 68 0 0 0
SMALL
GASTEIGER

@<TRIPOS>ATOM
      1 O           6.6746   -7.1409    0.0000 O.3     1  UNL1       -0.3277
      2 C           7.7822   -7.7822    0.0000 C.3     1  UNL1        0.2798
      3 C           7.7822   -9.0646    0.0000 C.3     1  UNL1        0.2572
      4 C           6.6746   -9.7059    0.0000 C.3     1  UNL1        0.2262
      5 C           5.5670   -9.0646    0.0000 C.3     1  UNL1        0.1788
      6 C           5.5670   -7.7822    0.0000 C.3     1  UNL1        0.1477
      7 O           8.9043   -7.1409    0.0000 O.3     1  UNL1       -0.3212
      8 C           8.8897   -4.9258    0.0000 C.3     1  UNL1        0.2162
      9 C           9.9973   -4.2846    0.0000 C.3     1  UNL1        0.2333
     10 O          11.1049   -4.9258    0.0000 O.3     1  UNL1       -0.4468
     11 C          13.4366   -4.9258    0.0000 C.2     1  UNL1        0.3170
     12 C          13.4366   -3.2790    0.0000 C.3     1  UNL1        0.1096
     13 C          14.5734   -2.6232    0.0000 C.3     1  UNL1        0.0116
     14 C          13.4366   -1.9674    0.0000 C.3     1  UNL1        0.0006
     15 C          13.4366   -0.6558    0.0000 C.3     1  UNL1        0.0000
     16 C          12.3145    0.0000    0.0000 C.3     1  UNL1        0.0000
     17 C          11.1778   -0.6558    0.0000 C.3     1  UNL1        0.0000
     18 C          10.0410    0.0000    0.0000 C.3     1  UNL1        0.0001
     19 C           8.9043   -0.6558    0.0000 C.3     1  UNL1        0.0025
     20 C           7.7676    0.0000    0.0000 C.3     1  UNL1        0.0296
     21 C           6.6309   -0.6558    0.0000 C.3     1  UNL1        0.1179
     22 O           6.6017   -2.3463    0.0000 O.3     1  UNL1       -0.3312
     23 C           5.4942   -2.9875    0.0000 C.3     1  UNL1        0.2660
     24 O           4.3866   -2.3463    0.0000 O.3     1  UNL1       -0.3284
     25 C           3.2790   -2.9875    0.0000 C.3     1  UNL1        0.1508
     26 C           3.2790   -4.2700    0.0000 C.3     1  UNL1        0.2117
     27 C           4.3866   -4.9112    0.0000 C.3     1  UNL1        0.2165
     28 C           5.4942   -4.2700    0.0000 C.3     1  UNL1        0.2066
     29 O           6.6746   -4.9258    0.0000 O.3     1  UNL1       -0.3231
     30 C           7.7822   -4.2846    0.0000 C.3     1  UNL1        0.2674
     31 O           7.7822   -3.0021    0.0000 O.3     1  UNL1       -0.3284
     32 C           8.8897   -2.3609    0.0000 C.3     1  UNL1        0.1519
     33 C           9.9973   -3.0021    0.0000 C.3     1  UNL1        0.2212
     34 O           8.9043   -9.7059    0.0000 O.3     1  UNL1       -0.4442
     35 C          10.0119   -9.0646    0.0000 C.2     1  UNL1        0.3165
     36 O          10.0119   -7.7822    0.0000 O.2     1  UNL1       -0.2501
     37 O           6.6746  -10.9883    0.0000 O.3     1  UNL1       -0.2164
     38 O           4.4449   -9.7059    0.0000 O.3     1  UNL1       -0.3258
     39 C           3.3373   -9.0646    0.0000 C.3     1  UNL1        0.2695
     40 O           3.3373   -7.7822    0.0000 O.3     1  UNL1       -0.3284
     41 C           2.2297   -7.1409    0.0000 C.3     1  UNL1        0.1508
     42 C           1.1076   -7.7822    0.0000 C.3     1  UNL1        0.2118
     43 C           1.1076   -9.0646    0.0000 C.3     1  UNL1        0.2197
     44 C           2.2297   -9.7059    0.0000 C.3     1  UNL1        0.2406
     45 C           4.4449   -7.1409    0.0000 C.3     1  UNL1        0.0348
     46 O          14.5734   -5.5816    0.0000 O.2     1  UNL1       -0.2501
     47 C           5.4942    0.0000    0.0000 C.3     1  UNL1        0.0296
     48 C           4.3574   -0.6558    0.0000 C.3     1  UNL1        0.0025
     49 C           3.2207    0.0000    0.0000 C.3     1  UNL1        0.0001
     50 C           2.0840   -0.6558    0.0000 C.3     1  UNL1        0.0000
     51 C           0.9618    0.0000    0.0000 C.3     1  UNL1        0.0000
     52 C           2.1714   -2.3463    0.0000 C.3     1  UNL1        0.0350
     53 O           2.1714   -4.9112    0.0000 O.3     1  UNL1       -0.2177
     54 O           4.3866   -6.1937    0.0000 O.3     1  UNL1       -0.2175
     55 C           8.8897   -1.0784    0.0000 C.3     1  UNL1        0.0350
     56 O          11.1049   -2.3609    0.0000 O.3     1  UNL1       -0.2165
     57 C          11.1195   -9.7059    0.0000 C.3     1  UNL1        0.0991
     58 C          12.2270   -9.0646    0.0000 C.3     1  UNL1        0.0111
     59 C          13.3346   -9.7059    0.0000 C.3     1  UNL1        0.0006
     60 C           2.2297   -5.8585    0.0000 C.3     1  UNL1        0.0350
     61 O           0.0000   -7.1409    0.0000 O.3     1  UNL1       -0.2177
     62 O           0.0000   -9.7059    0.0000 O.3     1  UNL1       -0.2174
     63 O           2.2297  -10.9883    0.0000 O.3     1  UNL1       -0.2149
     64 C          11.1195  -10.9883    0.0000 C.3     1  UNL1        0.0116
@<TRIPOS>BOND
     1     1     6    1
     2     1     2    1
     3     2     7    1
     4     2     3    1
     5     3     4    1
     6     3    34    1
     7     4     5    1
     8     4    37    1
     9     5     6    1
    10     5    38    1
    11     6    45    1
    12     8     7    1
    13     8     9    1
    14     8    30    1
    15     9    33    1
    16     9    10    1
    17    10    11    1
    18    11    12    1
    19    11    46    2
    20    12    13    1
    21    13    14    1
    22    14    15    1
    23    15    16    1
    24    16    17    1
    25    17    18    1
    26    18    19    1
    27    19    20    1
    28    20    21    1
    29    21    47    1
    30    21    22    1
    31    23    22    1
    32    23    28    1
    33    23    24    1
    34    24    25    1
    35    25    26    1
    36    25    52    1
    37    26    27    1
    38    26    53    1
    39    27    28    1
    40    27    54    1
    41    28    29    1
    42    30    29    1
    43    30    31    1
    44    31    32    1
    45    32    33    1
    46    32    55    1
    47    33    56    1
    48    34    35    1
    49    35    36    2
    50    39    38    1
    51    39    44    1
    52    39    40    1
    53    40    41    1
    54    41    42    1
    55    41    60    1
    56    42    43    1
    57    42    61    1
    58    43    44    1
    59    43    62    1
    60    44    63    1
    61    47    48    1
    62    48    49    1
    63    49    50    1
    64    50    51    1
    65    57    35    1
    66    57    64    1
    67    57    58    1
    68    58    59    1
