@<TRIPOS>MOLECULE
IMPHY000162
 62 64 0 0 0
SMALL
GASTEIGER

@<TRIPOS>ATOM
      1 O           2.8660    1.0000    0.0000 O.3     1  UNL1       -0.3827
      2 O           3.7320    3.5000    0.0000 O.3     1  UNL1       -0.3827
      3 O           8.9942    0.4758    0.0000 O.3     1  UNL1       -0.4914
      4 O           8.9942    2.5242    0.0000 O.3     1  UNL1       -0.4914
      5 O           3.7320   -2.5000    0.0000 O.3     1  UNL1       -0.4914
      6 O           5.4641   -3.5000    0.0000 O.3     1  UNL1       -0.4915
      7 C           4.5981    1.0000    0.0000 C.3     1  UNL1       -0.0016
      8 C           4.5981    2.0000    0.0000 C.3     1  UNL1       -0.0078
      9 C           5.4641    0.5000    0.0000 C.3     1  UNL1        0.0150
     10 C           5.4641    2.5000    0.0000 C.3     1  UNL1       -0.0220
     11 C           6.3301    1.0000    0.0000 C.ar    1  UNL1       -0.0328
     12 C           6.3301    2.0000    0.0000 C.ar    1  UNL1       -0.0396
     13 C           3.7320    0.5000    0.0000 C.3     1  UNL1        0.0513
     14 C           3.7320    2.5000    0.0000 C.3     1  UNL1        0.0508
     15 C           5.4641   -0.5000    0.0000 C.ar    1  UNL1       -0.0359
     16 C           7.2241    0.4653    0.0000 C.ar    1  UNL1       -0.0123
     17 C           7.2241    2.5347    0.0000 C.ar    1  UNL1       -0.0128
     18 C           4.5981   -1.0000    0.0000 C.ar    1  UNL1       -0.0125
     19 C           8.1301    0.9792    0.0000 C.ar    1  UNL1        0.1618
     20 C           6.3301   -1.0000    0.0000 C.ar    1  UNL1       -0.0543
     21 C           8.1301    2.0208    0.0000 C.ar    1  UNL1        0.1618
     22 C           4.5981   -2.0000    0.0000 C.ar    1  UNL1        0.1618
     23 C           6.3301   -2.0000    0.0000 C.ar    1  UNL1       -0.0160
     24 C           5.4641   -2.5000    0.0000 C.ar    1  UNL1        0.1615
     25 C           2.0000    0.5000    0.0000 C.3     1  UNL1        0.0365
     26 C           2.8660    4.0000    0.0000 C.3     1  UNL1        0.0365
     27 C           9.8622    0.9725    0.0000 C.3     1  UNL1        0.0790
     28 C           8.9904    3.5241    0.0000 C.3     1  UNL1        0.0790
     29 C           3.7320   -3.5000    0.0000 C.3     1  UNL1        0.0790
     30 C           6.3301   -4.0000    0.0000 C.3     1  UNL1        0.0790
     31 H           4.5981    0.3800    0.0000 H       1  UNL1        0.0335
     32 H           4.5981    2.6200    0.0000 H       1  UNL1        0.0330
     33 H           6.0010    0.1900    0.0000 H       1  UNL1        0.0401
     34 H           5.8626    2.9750    0.0000 H       1  UNL1        0.0317
     35 H           5.0656    2.9750    0.0000 H       1  UNL1        0.0317
     36 H           3.3335    0.0251    0.0000 H       1  UNL1        0.0563
     37 H           4.1306    0.0251    0.0000 H       1  UNL1        0.0563
     38 H           3.1215    2.6077    0.0000 H       1  UNL1        0.0562
     39 H           3.5200    1.9174    0.0000 H       1  UNL1        0.0562
     40 H           7.2169   -0.1546    0.0000 H       1  UNL1        0.0658
     41 H           7.2169    3.1546    0.0000 H       1  UNL1        0.0658
     42 H           4.0611   -0.6900    0.0000 H       1  UNL1        0.0658
     43 H           6.8671   -0.6900    0.0000 H       1  UNL1        0.0622
     44 H           6.8671   -2.3100    0.0000 H       1  UNL1        0.0655
     45 H           1.6900    1.0369    0.0000 H       1  UNL1        0.0523
     46 H           1.4631    0.1900    0.0000 H       1  UNL1        0.0523
     47 H           2.3100   -0.0369    0.0000 H       1  UNL1        0.0523
     48 H           3.1760    4.5369    0.0000 H       1  UNL1        0.0523
     49 H           2.3291    4.3100    0.0000 H       1  UNL1        0.0523
     50 H           2.5560    3.4631    0.0000 H       1  UNL1        0.0523
     51 H          10.1701    0.4344    0.0000 H       1  UNL1        0.0660
     52 H          10.4003    1.2804    0.0000 H       1  UNL1        0.0660
     53 H           9.5542    1.5106    0.0000 H       1  UNL1        0.0660
     54 H           9.6104    3.5265    0.0000 H       1  UNL1        0.0660
     55 H           8.9880    4.1441    0.0000 H       1  UNL1        0.0660
     56 H           8.3704    3.5218    0.0000 H       1  UNL1        0.0660
     57 H           3.1120   -3.5000    0.0000 H       1  UNL1        0.0660
     58 H           3.7320   -4.1200    0.0000 H       1  UNL1        0.0660
     59 H           4.3520   -3.5000    0.0000 H       1  UNL1        0.0660
     60 H           6.0201   -4.5369    0.0000 H       1  UNL1        0.0660
     61 H           6.8671   -4.3100    0.0000 H       1  UNL1        0.0660
     62 H           6.6401   -3.4631    0.0000 H       1  UNL1        0.0660
@<TRIPOS>BOND
     1     1    13    1
     2     1    25    1
     3     2    14    1
     4     2    26    1
     5     3    19    1
     6     3    27    1
     7     4    21    1
     8     4    28    1
     9     5    22    1
    10     5    29    1
    11     6    24    1
    12     6    30    1
    13     7     8    1
    14     7     9    1
    15     7    13    1
    16     7    31    1
    17     8    10    1
    18     8    14    1
    19     8    32    1
    20     9    11    1
    21     9    15    1
    22     9    33    1
    23    10    12    1
    24    10    34    1
    25    10    35    1
    26    11    12   ar
    27    11    16   ar
    28    12    17   ar
    29    13    36    1
    30    13    37    1
    31    14    38    1
    32    14    39    1
    33    15    18   ar
    34    15    20   ar
    35    16    19   ar
    36    16    40    1
    37    17    21   ar
    38    17    41    1
    39    18    22   ar
    40    18    42    1
    41    19    21   ar
    42    20    23   ar
    43    20    43    1
    44    22    24   ar
    45    23    24   ar
    46    23    44    1
    47    25    45    1
    48    25    46    1
    49    25    47    1
    50    26    48    1
    51    26    49    1
    52    26    50    1
    53    27    51    1
    54    27    52    1
    55    27    53    1
    56    28    54    1
    57    28    55    1
    58    28    56    1
    59    29    57    1
    60    29    58    1
    61    29    59    1
    62    30    60    1
    63    30    61    1
    64    30    62    1
