@<TRIPOS>MOLECULE
IMPHY014596
 67 70 0 0 0
SMALL
GASTEIGER

@<TRIPOS>ATOM
      1 O           6.0010    0.4050    0.0000 O.2     1  UNL1       -0.4702
      2 O           6.8671   -1.0950    0.0000 O.3     1  UNL1       -0.3096
      3 O           8.9900    2.6602    0.0000 O.3     1  UNL1       -0.3886
      4 O          10.2629    0.9050    0.0000 O.3     1  UNL1       -0.3888
      5 O           9.9685   -1.0565    0.0000 O.3     1  UNL1       -0.4608
      6 O           5.1350   -1.0950    0.0000 O.3     1  UNL1       -0.3404
      7 O           6.0010    3.4050    0.0000 O.3     1  UNL1       -0.4646
      8 O           6.8671   -3.0950    0.0000 O.3     1  UNL1       -0.3841
      9 O           7.7331    3.4050    0.0000 O.2     1  UNL1       -0.2452
     10 O           5.1350   -4.0950    0.0000 O.3     1  UNL1       -0.3864
     11 O           3.4030   -3.0950    0.0000 O.3     1  UNL1       -0.3865
     12 O           2.5369   -1.5950    0.0000 O.3     1  UNL1       -0.3924
     13 O           9.6113   -2.7513    0.0000 O.2     1  UNL1       -0.2450
     14 C           7.7331    0.4050    0.0000 C.3     1  UNL1        0.0396
     15 C           7.7331    1.4050    0.0000 C.3     1  UNL1        0.0312
     16 C           8.6793    0.1003    0.0000 C.3     1  UNL1        0.0309
     17 C           8.6793    1.7097    0.0000 C.3     1  UNL1        0.0890
     18 C           9.2629    0.9050    0.0000 C.3     1  UNL1        0.0880
     19 C           6.8671   -0.0950    0.0000 C.3     1  UNL1        0.2074
     20 C           6.8671    1.9050    0.0000 C.2     1  UNL1        0.0768
     21 C           8.9900   -0.8503    0.0000 C.3     1  UNL1        0.0985
     22 C           6.0010    1.4050    0.0000 C.2     1  UNL1        0.0982
     23 C           6.0010   -1.5950    0.0000 C.3     1  UNL1        0.1918
     24 C           6.8671    2.9050    0.0000 C.2     1  UNL1        0.3382
     25 C           6.0010   -2.5950    0.0000 C.3     1  UNL1        0.1342
     26 C           5.1350   -3.0950    0.0000 C.3     1  UNL1        0.1141
     27 C           4.2690   -2.5950    0.0000 C.3     1  UNL1        0.1119
     28 C           4.2690   -1.5950    0.0000 C.3     1  UNL1        0.1130
     29 C           3.4030   -1.0950    0.0000 C.3     1  UNL1        0.0730
     30 C          10.2791   -2.0070    0.0000 C.2     1  UNL1        0.3392
     31 C          11.2576   -2.2132    0.0000 C.ar    1  UNL1        0.0590
     32 C           6.0010    4.4050    0.0000 C.3     1  UNL1        0.0820
     33 C          11.5683   -3.1637    0.0000 C.ar    1  UNL1       -0.0478
     34 C          11.9255   -1.4689    0.0000 C.ar    1  UNL1       -0.0478
     35 C          12.5468   -3.3700    0.0000 C.ar    1  UNL1       -0.0610
     36 C          12.9040   -1.6751    0.0000 C.ar    1  UNL1       -0.0610
     37 C          13.2147   -2.6256    0.0000 C.ar    1  UNL1       -0.0617
     38 H           7.8230   -0.4402    0.0000 H       1  UNL1        0.0373
     39 H           7.8230    2.2502    0.0000 H       1  UNL1        0.0383
     40 H           8.2418   -0.3391    0.0000 H       1  UNL1        0.0364
     41 H           8.2418    2.1491    0.0000 H       1  UNL1        0.0625
     42 H           9.5446    1.4573    0.0000 H       1  UNL1        0.0623
     43 H           7.4040   -0.4050    0.0000 H       1  UNL1        0.1059
     44 H           8.3762   -0.9376    0.0000 H       1  UNL1        0.0701
     45 H           8.9694   -1.4699    0.0000 H       1  UNL1        0.0701
     46 H           5.4641    1.7150    0.0000 H       1  UNL1        0.1029
     47 H           9.5966    2.7881    0.0000 H       1  UNL1        0.2099
     48 H          10.5729    1.4419    0.0000 H       1  UNL1        0.2099
     49 H           6.0010   -0.9750    0.0000 H       1  UNL1        0.0939
     50 H           6.0010   -3.2150    0.0000 H       1  UNL1        0.0671
     51 H           4.5981   -3.4050    0.0000 H       1  UNL1        0.0648
     52 H           4.2690   -3.2150    0.0000 H       1  UNL1        0.0647
     53 H           4.2690   -0.9750    0.0000 H       1  UNL1        0.0647
     54 H           3.8015   -0.6201    0.0000 H       1  UNL1        0.0584
     55 H           3.0044   -0.6201    0.0000 H       1  UNL1        0.0584
     56 H           6.8671   -3.7150    0.0000 H       1  UNL1        0.2101
     57 H           4.5981   -4.4050    0.0000 H       1  UNL1        0.2100
     58 H           3.4030   -3.7150    0.0000 H       1  UNL1        0.2100
     59 H           6.6210    4.4050    0.0000 H       1  UNL1        0.0661
     60 H           6.0010    5.0250    0.0000 H       1  UNL1        0.0661
     61 H           5.3810    4.4050    0.0000 H       1  UNL1        0.0661
     62 H           2.0000   -1.2850    0.0000 H       1  UNL1        0.2095
     63 H          11.1542   -3.6252    0.0000 H       1  UNL1        0.0626
     64 H          11.7329   -0.8796    0.0000 H       1  UNL1        0.0626
     65 H          12.7394   -3.9593    0.0000 H       1  UNL1        0.0618
     66 H          13.3181   -1.2137    0.0000 H       1  UNL1        0.0618
     67 H          13.8213   -2.7535    0.0000 H       1  UNL1        0.0618
@<TRIPOS>BOND
     1     1    19    1
     2     1    22    1
     3    19     2    1
     4    23     2    1
     5    17     3    1
     6     3    47    1
     7    18     4    1
     8     4    48    1
     9     5    21    1
    10     5    30    1
    11     6    23    1
    12     6    28    1
    13     7    24    1
    14     7    32    1
    15    25     8    1
    16     8    56    1
    17     9    24    2
    18    26    10    1
    19    10    57    1
    20    27    11    1
    21    11    58    1
    22    12    29    1
    23    12    62    1
    24    13    30    2
    25    14    15    1
    26    14    16    1
    27    14    19    1
    28    14    38    1
    29    15    17    1
    30    15    20    1
    31    15    39    1
    32    16    18    1
    33    16    21    1
    34    16    40    1
    35    17    18    1
    36    17    41    1
    37    18    42    1
    38    19    43    1
    39    20    22    2
    40    20    24    1
    41    21    44    1
    42    21    45    1
    43    22    46    1
    44    23    25    1
    45    23    49    1
    46    25    26    1
    47    25    50    1
    48    26    27    1
    49    26    51    1
    50    27    28    1
    51    27    52    1
    52    28    29    1
    53    28    53    1
    54    29    54    1
    55    29    55    1
    56    30    31    1
    57    31    33   ar
    58    31    34   ar
    59    32    59    1
    60    32    60    1
    61    32    61    1
    62    33    35   ar
    63    33    63    1
    64    34    36   ar
    65    34    64    1
    66    35    37   ar
    67    35    65    1
    68    36    37   ar
    69    36    66    1
    70    37    67    1
