@<TRIPOS>MOLECULE
IMPHY016757
 29 29 0 0 0
SMALL
GASTEIGER

@<TRIPOS>ATOM
      1 O           4.5576    1.1852    0.0000 O.3     1  UNL1       -0.3405
      2 O           3.4698   -1.1626    0.0000 O.3     1  UNL1       -0.3744
      3 O           5.6454   -1.1626    0.0000 O.3     1  UNL1       -0.3721
      4 O           6.3177    0.9064    0.0000 O.3     1  UNL1       -0.3519
      5 O           2.5896    1.8846    0.0000 O.3     1  UNL1       -0.3924
      6 C           4.0576   -0.3536    0.0000 C.3     1  UNL1        0.1174
      7 C           5.0576   -0.3536    0.0000 C.3     1  UNL1        0.1374
      8 C           3.7486    0.5974    0.0000 C.3     1  UNL1        0.1133
      9 C           5.3667    0.5974    0.0000 C.3     1  UNL1        0.1878
     10 C           2.7976    0.9064    0.0000 C.3     1  UNL1        0.0730
     11 C           3.8766   -2.0762    0.0000 C.3     1  UNL1        0.0370
     12 C           6.6400   -1.0581    0.0000 C.3     1  UNL1        0.0371
     13 C           6.5256    1.8846    0.0000 C.3     1  UNL1        0.0395
     14 H           4.3391   -0.9060    0.0000 H       1  UNL1        0.0650
     15 H           4.7762   -0.9060    0.0000 H       1  UNL1        0.0674
     16 H           3.6516    1.2098    0.0000 H       1  UNL1        0.0647
     17 H           5.8051    0.1590    0.0000 H       1  UNL1        0.0937
     18 H           2.1779    0.8848    0.0000 H       1  UNL1        0.0584
     19 H           2.7113    0.2925    0.0000 H       1  UNL1        0.0584
     20 H           3.3102   -2.3284    0.0000 H       1  UNL1        0.0524
     21 H           4.1288   -2.6426    0.0000 H       1  UNL1        0.0524
     22 H           4.4430   -1.8240    0.0000 H       1  UNL1        0.0524
     23 H           6.7048   -1.6747    0.0000 H       1  UNL1        0.0524
     24 H           7.2566   -0.9933    0.0000 H       1  UNL1        0.0524
     25 H           6.5751   -0.4415    0.0000 H       1  UNL1        0.0524
     26 H           2.0000    2.0762    0.0000 H       1  UNL1        0.2095
     27 H           7.1321    1.7557    0.0000 H       1  UNL1        0.0525
     28 H           6.6545    2.4910    0.0000 H       1  UNL1        0.0525
     29 H           5.9192    2.0135    0.0000 H       1  UNL1        0.0525
@<TRIPOS>BOND
     1     1     8    1
     2     1     9    1
     3     6     2    1
     4     2    11    1
     5     7     3    1
     6     3    12    1
     7     9     4    1
     8     4    13    1
     9     5    10    1
    10     5    26    1
    11     6     7    1
    12     6     8    1
    13     6    14    1
    14     7     9    1
    15     7    15    1
    16     8    10    1
    17     8    16    1
    18     9    17    1
    19    10    18    1
    20    10    19    1
    21    11    20    1
    22    11    21    1
    23    11    22    1
    24    12    23    1
    25    12    24    1
    26    12    25    1
    27    13    27    1
    28    13    28    1
    29    13    29    1
