@<TRIPOS>MOLECULE
IMPHY000155
 68 72 0 0 0
SMALL
GASTEIGER

@<TRIPOS>ATOM
      1 O           7.4149   -2.1974    0.0000 O.3     1  UNL1       -0.4606
      2 O           2.0000   -2.2183    0.0000 O.2     1  UNL1       -0.2921
      3 O           8.6528    3.7073    0.0000 O.2     1  UNL1       -0.4708
      4 O           6.5662   -3.7073    0.0000 O.2     1  UNL1       -0.2512
      5 C           6.5271   -0.6660    0.0000 C.3     1  UNL1        0.0300
      6 C           5.6610   -0.1660    0.0000 C.3     1  UNL1       -0.0194
      7 C           4.7510   -0.6728    0.0000 C.3     1  UNL1       -0.0061
      8 C           4.7430   -1.7144    0.0000 C.3     1  UNL1       -0.0164
      9 C           7.3931    0.8340    0.0000 C.3     1  UNL1       -0.0033
     10 C           7.3931   -0.1660    0.0000 C.2     1  UNL1       -0.0573
     11 C           6.5431   -1.7075    0.0000 C.3     1  UNL1        0.1126
     12 C           5.6610    0.8340    0.0000 C.3     1  UNL1       -0.0477
     13 C           5.6451   -2.2352    0.0000 C.3     1  UNL1       -0.0103
     14 C           6.5271    1.3340    0.0000 C.3     1  UNL1       -0.0430
     15 C           3.8076   -2.2641    0.0000 C.3     1  UNL1        0.0311
     16 C           8.3393    1.1388    0.0000 C.3     1  UNL1       -0.0004
     17 C           7.3931   -1.1660    0.0000 C.3     1  UNL1       -0.0521
     18 C           4.7587    0.3272    0.0000 C.3     1  UNL1       -0.0555
     19 C           3.8242   -0.1087    0.0000 C.2     1  UNL1       -0.0742
     20 C           8.3393   -0.4707    0.0000 C.2     1  UNL1       -0.0830
     21 C           8.9229    0.3340    0.0000 C.3     1  UNL1       -0.0267
     22 C           7.3931    1.8340    0.0000 C.3     1  UNL1       -0.0553
     23 C           2.8680   -1.7216    0.0000 C.2     1  UNL1        0.1617
     24 C           2.8763   -0.6367    0.0000 C.2     1  UNL1       -0.0221
     25 C           3.3109   -3.1321    0.0000 C.3     1  UNL1       -0.0525
     26 C           4.3109   -3.1282    0.0000 C.3     1  UNL1       -0.0525
     27 C           8.6500    2.0893    0.0000 C.ar    1  UNL1       -0.0055
     28 C           7.4264   -3.1974    0.0000 C.2     1  UNL1        0.3042
     29 C           9.6016    2.3967    0.0000 C.ar    1  UNL1       -0.0204
     30 C           8.0636    2.8993    0.0000 C.ar    1  UNL1        0.0951
     31 C           9.6033    3.3967    0.0000 C.ar    1  UNL1        0.0920
     32 C           8.2982   -3.6873    0.0000 C.3     1  UNL1        0.0332
     33 H           6.3972    0.2590    0.0000 H       1  UNL1        0.0319
     34 H           4.7463   -2.5644    0.0000 H       1  UNL1        0.0320
     35 H           6.5491   -2.3274    0.0000 H       1  UNL1        0.0743
     36 H           5.4490    1.4166    0.0000 H       1  UNL1        0.0269
     37 H           5.0504    0.7264    0.0000 H       1  UNL1        0.0269
     38 H           5.2478   -2.7112    0.0000 H       1  UNL1        0.0304
     39 H           6.0460   -2.7081    0.0000 H       1  UNL1        0.0304
     40 H           6.9256    1.8090    0.0000 H       1  UNL1        0.0274
     41 H           6.1285    1.8090    0.0000 H       1  UNL1        0.0274
     42 H           8.9518    1.2350    0.0000 H       1  UNL1        0.0361
     43 H           7.0831   -1.7029    0.0000 H       1  UNL1        0.0239
     44 H           7.9300   -1.4760    0.0000 H       1  UNL1        0.0239
     45 H           7.7031   -0.6290    0.0000 H       1  UNL1        0.0239
     46 H           5.3787    0.3224    0.0000 H       1  UNL1        0.0238
     47 H           4.7635    0.9472    0.0000 H       1  UNL1        0.0238
     48 H           4.1388    0.3319    0.0000 H       1  UNL1        0.0238
     49 H           3.8361    0.5112    0.0000 H       1  UNL1        0.0579
     50 H           8.5319   -1.0600    0.0000 H       1  UNL1        0.0572
     51 H           9.3838   -0.0807    0.0000 H       1  UNL1        0.0314
     52 H           9.3838    0.7488    0.0000 H       1  UNL1        0.0314
     53 H           8.0131    1.8340    0.0000 H       1  UNL1        0.0238
     54 H           7.3931    2.4540    0.0000 H       1  UNL1        0.0238
     55 H           6.7731    1.8340    0.0000 H       1  UNL1        0.0238
     56 H           2.3430   -0.3205    0.0000 H       1  UNL1        0.0649
     57 H           2.7728   -2.8241    0.0000 H       1  UNL1        0.0239
     58 H           3.0030   -3.6702    0.0000 H       1  UNL1        0.0239
     59 H           3.8490   -3.4400    0.0000 H       1  UNL1        0.0239
     60 H           3.7752   -3.4403    0.0000 H       1  UNL1        0.0239
     61 H           4.6230   -3.6640    0.0000 H       1  UNL1        0.0239
     62 H           4.8466   -2.8162    0.0000 H       1  UNL1        0.0239
     63 H          10.1025    2.0314    0.0000 H       1  UNL1        0.0652
     64 H           7.4436    2.9004    0.0000 H       1  UNL1        0.1032
     65 H          10.1055    3.7602    0.0000 H       1  UNL1        0.1029
     66 H           7.9944   -4.2278    0.0000 H       1  UNL1        0.0342
     67 H           8.8387   -3.9911    0.0000 H       1  UNL1        0.0342
     68 H           8.6020   -3.1468    0.0000 H       1  UNL1        0.0342
@<TRIPOS>BOND
     1    11     1    1
     2     1    28    1
     3     2    23    2
     4     3    30   ar
     5     3    31   ar
     6     4    28    2
     7     5     6    1
     8     5    10    1
     9     5    11    1
    10     5    17    1
    11     6     7    1
    12     6    12    1
    13     6    33    1
    14     7     8    1
    15     7    18    1
    16     7    19    1
    17     8    13    1
    18     8    15    1
    19     8    34    1
    20     9    10    1
    21     9    14    1
    22     9    16    1
    23     9    22    1
    24    10    20    2
    25    11    13    1
    26    11    35    1
    27    12    14    1
    28    12    36    1
    29    12    37    1
    30    13    38    1
    31    13    39    1
    32    14    40    1
    33    14    41    1
    34    15    23    1
    35    15    25    1
    36    15    26    1
    37    16    21    1
    38    16    27    1
    39    16    42    1
    40    17    43    1
    41    17    44    1
    42    17    45    1
    43    18    46    1
    44    18    47    1
    45    18    48    1
    46    19    24    2
    47    19    49    1
    48    20    21    1
    49    20    50    1
    50    21    51    1
    51    21    52    1
    52    22    53    1
    53    22    54    1
    54    22    55    1
    55    23    24    1
    56    24    56    1
    57    25    57    1
    58    25    58    1
    59    25    59    1
    60    26    60    1
    61    26    61    1
    62    26    62    1
    63    27    29   ar
    64    27    30   ar
    65    28    32    1
    66    29    31   ar
    67    29    63    1
    68    30    64    1
    69    31    65    1
    70    32    66    1
    71    32    67    1
    72    32    68    1
