@<TRIPOS>MOLECULE
IMPHY005715
 22 22 0 0 0
SMALL
GASTEIGER

@<TRIPOS>ATOM
      1 O           4.2690    1.7500    0.0000 O.3     1  UNL1       -0.4914
      2 O           2.5369    0.7500    0.0000 O.3     1  UNL1       -0.5033
      3 O           6.8671   -0.7500    0.0000 O.2     1  UNL1       -0.2924
      4 C           5.1350   -0.7500    0.0000 C.ar    1  UNL1        0.0208
      5 C           4.2690    0.7500    0.0000 C.ar    1  UNL1        0.1619
      6 C           5.1350    0.2500    0.0000 C.ar    1  UNL1       -0.0058
      7 C           4.2690   -1.2500    0.0000 C.ar    1  UNL1       -0.0476
      8 C           3.4030    0.2500    0.0000 C.ar    1  UNL1        0.1585
      9 C           3.4030   -0.7500    0.0000 C.ar    1  UNL1       -0.0159
     10 C           6.0010   -1.2500    0.0000 C.2     1  UNL1        0.1602
     11 C           6.0010   -2.2500    0.0000 C.3     1  UNL1       -0.0014
     12 C           5.1350    2.2500    0.0000 C.3     1  UNL1        0.0790
     13 H           5.6720    0.5600    0.0000 H       1  UNL1        0.0662
     14 H           4.2690   -1.8700    0.0000 H       1  UNL1        0.0626
     15 H           2.8660   -1.0600    0.0000 H       1  UNL1        0.0655
     16 H           5.3810   -2.2500    0.0000 H       1  UNL1        0.0309
     17 H           6.0010   -2.8700    0.0000 H       1  UNL1        0.0309
     18 H           6.6210   -2.2500    0.0000 H       1  UNL1        0.0309
     19 H           5.4450    1.7131    0.0000 H       1  UNL1        0.0660
     20 H           5.6720    2.5600    0.0000 H       1  UNL1        0.0660
     21 H           4.8250    2.7869    0.0000 H       1  UNL1        0.0660
     22 H           2.0000    0.4400    0.0000 H       1  UNL1        0.2923
@<TRIPOS>BOND
     1     1     5    1
     2     1    12    1
     3     2     8    1
     4     2    22    1
     5     3    10    2
     6     4     6   ar
     7     4     7   ar
     8     4    10    1
     9     5     6   ar
    10     5     8   ar
    11     6    13    1
    12     7     9   ar
    13     7    14    1
    14     8     9   ar
    15     9    15    1
    16    10    11    1
    17    11    16    1
    18    11    17    1
    19    11    18    1
    20    12    19    1
    21    12    20    1
    22    12    21    1
