@<TRIPOS>MOLECULE
IMPHY010864
 38 42 0 0 0
SMALL
GASTEIGER

@<TRIPOS>ATOM
      1 O           6.2719   -1.0387    0.0000 O.3     1  UNL1       -0.4828
      2 O           6.4811    1.9331    0.0000 O.3     1  UNL1       -0.4906
      3 O           2.2123   -1.0554    0.0000 O.3     1  UNL1       -0.4526
      4 O           2.8914   -2.5773    0.0000 O.3     1  UNL1       -0.4525
      5 O           8.2295   -1.1015    0.0000 O.3     1  UNL1       -0.5029
      6 O          10.0112   -0.0910    0.0000 O.3     1  UNL1       -0.4885
      7 O          10.0112    1.9573    0.0000 O.3     1  UNL1       -0.5031
      8 C           5.6151    0.4331    0.0000 C.3     1  UNL1        0.0632
      9 C           6.4811   -0.0669    0.0000 C.3     1  UNL1        0.1420
     10 C           4.8780   -0.2340    0.0000 C.ar    1  UNL1        0.0082
     11 C           5.6151    1.4331    0.0000 C.3     1  UNL1        0.1002
     12 C           7.3471    0.4331    0.0000 C.ar    1  UNL1        0.0802
     13 C           5.2832   -1.1417    0.0000 C.ar    1  UNL1        0.1288
     14 C           7.3471    1.4331    0.0000 C.ar    1  UNL1        0.1344
     15 C           3.8499   -0.1107    0.0000 C.ar    1  UNL1       -0.0090
     16 C           8.2410   -0.1015    0.0000 C.ar    1  UNL1        0.1725
     17 C           4.6882   -1.9892    0.0000 C.ar    1  UNL1        0.0259
     18 C           3.2356   -0.9443    0.0000 C.ar    1  UNL1        0.1667
     19 C           3.6576   -1.8898    0.0000 C.ar    1  UNL1        0.1697
     20 C           8.2410    1.9678    0.0000 C.ar    1  UNL1        0.0258
     21 C           9.1471    0.4123    0.0000 C.ar    1  UNL1        0.2037
     22 C           9.1471    1.4540    0.0000 C.ar    1  UNL1        0.1657
     23 C           2.0000   -2.0626    0.0000 C.3     1  UNL1        0.2332
     24 C          10.8792    0.4056    0.0000 C.3     1  UNL1        0.0791
     25 H           5.0483    0.6846    0.0000 H       1  UNL1        0.0423
     26 H           6.9822   -0.4319    0.0000 H       1  UNL1        0.0794
     27 H           5.4030    2.0157    0.0000 H       1  UNL1        0.0704
     28 H           5.0045    1.3255    0.0000 H       1  UNL1        0.0704
     29 H           3.6038    0.4583    0.0000 H       1  UNL1        0.0659
     30 H           4.9474   -2.5525    0.0000 H       1  UNL1        0.0692
     31 H           8.2339    2.5878    0.0000 H       1  UNL1        0.0692
     32 H           1.4101   -1.8717    0.0000 H       1  UNL1        0.1166
     33 H           1.7482   -2.6292    0.0000 H       1  UNL1        0.1166
     34 H           8.7628   -1.4176    0.0000 H       1  UNL1        0.2923
     35 H          10.0088    2.5773    0.0000 H       1  UNL1        0.2923
     36 H          11.1871   -0.1325    0.0000 H       1  UNL1        0.0660
     37 H          11.4173    0.7136    0.0000 H       1  UNL1        0.0660
     38 H          10.5712    0.9438    0.0000 H       1  UNL1        0.0660
@<TRIPOS>BOND
     1     1     9    1
     2     1    13    1
     3     2    11    1
     4     2    14    1
     5     3    18    1
     6     3    23    1
     7     4    19    1
     8     4    23    1
     9     5    16    1
    10     5    34    1
    11     6    21    1
    12     6    24    1
    13     7    22    1
    14     7    35    1
    15     8     9    1
    16     8    10    1
    17     8    11    1
    18     8    25    1
    19     9    12    1
    20     9    26    1
    21    10    13   ar
    22    10    15   ar
    23    11    27    1
    24    11    28    1
    25    12    14   ar
    26    12    16   ar
    27    13    17   ar
    28    14    20   ar
    29    15    18   ar
    30    15    29    1
    31    16    21   ar
    32    17    19   ar
    33    17    30    1
    34    18    19   ar
    35    20    22   ar
    36    20    31    1
    37    21    22   ar
    38    23    32    1
    39    23    33    1
    40    24    36    1
    41    24    37    1
    42    24    38    1
