@<TRIPOS>MOLECULE
IMPHY005393
 28 28 0 0 0
SMALL
GASTEIGER

@<TRIPOS>ATOM
      1 O           7.0532   -0.6895    0.0000 O.2     1  UNL1       -0.2974
      2 O           2.0000    1.9142    0.0000 O.2     1  UNL1       -0.3010
      3 C           5.3801    0.7588    0.0000 C.3     1  UNL1       -0.0222
      4 C           4.3801    0.7588    0.0000 C.3     1  UNL1       -0.0282
      5 C           5.3801   -0.2412    0.0000 C.3     1  UNL1        0.0229
      6 C           4.3801   -0.2412    0.0000 C.3     1  UNL1       -0.0393
      7 C           6.3801    0.7588    0.0000 C.3     1  UNL1       -0.0589
      8 C           5.3801    1.7588    0.0000 C.3     1  UNL1       -0.0589
      9 C           3.6730    1.4659    0.0000 C.3     1  UNL1        0.0061
     10 C           6.0872   -0.9483    0.0000 C.2     1  UNL1        0.1339
     11 C           2.7071    1.2071    0.0000 C.2     1  UNL1        0.1206
     12 C           5.8284   -1.9142    0.0000 C.3     1  UNL1       -0.0058
     13 H           4.7054    1.5441    0.0000 H       1  UNL1        0.0310
     14 H           6.1654    0.0841    0.0000 H       1  UNL1        0.0383
     15 H           3.7601   -0.2412    0.0000 H       1  UNL1        0.0275
     16 H           4.3801   -0.8612    0.0000 H       1  UNL1        0.0275
     17 H           6.0001    1.7588    0.0000 H       1  UNL1        0.0235
     18 H           5.3801    2.3788    0.0000 H       1  UNL1        0.0235
     19 H           4.7601    1.7588    0.0000 H       1  UNL1        0.0235
     20 H           6.3801    0.1388    0.0000 H       1  UNL1        0.0235
     21 H           7.0001    0.7588    0.0000 H       1  UNL1        0.0235
     22 H           6.3801    1.3788    0.0000 H       1  UNL1        0.0235
     23 H           4.1809    1.8215    0.0000 H       1  UNL1        0.0342
     24 H           3.4110    2.0278    0.0000 H       1  UNL1        0.0342
     25 H           2.5466    0.6082    0.0000 H       1  UNL1        0.1026
     26 H           5.2296   -1.7538    0.0000 H       1  UNL1        0.0306
     27 H           5.6680   -2.5131    0.0000 H       1  UNL1        0.0306
     28 H           6.4273   -2.0747    0.0000 H       1  UNL1        0.0306
@<TRIPOS>BOND
     1     1    10    2
     2     2    11    2
     3     3     4    1
     4     3     5    1
     5     3     7    1
     6     3     8    1
     7     4     6    1
     8     4     9    1
     9     4    13    1
    10     5     6    1
    11     5    10    1
    12     5    14    1
    13     6    15    1
    14     6    16    1
    15     7    20    1
    16     7    21    1
    17     7    22    1
    18     8    17    1
    19     8    18    1
    20     8    19    1
    21     9    11    1
    22     9    23    1
    23     9    24    1
    24    10    12    1
    25    11    25    1
    26    12    26    1
    27    12    27    1
    28    12    28    1
