@<TRIPOS>MOLECULE
IMPHY015692
 21 21 0 0 0
SMALL
GASTEIGER

@<TRIPOS>ATOM
      1 O           4.7770   -0.3210    0.0000 O.3     1  UNL1       -0.4568
      2 O           2.8090    0.3784    0.0000 O.2     1  UNL1       -0.4644
      3 O           6.4712    0.0391    0.0000 O.2     1  UNL1       -0.2509
      4 C           4.5691    0.6571    0.0000 C.3     1  UNL1        0.1497
      5 C           3.6180    0.9661    0.0000 C.ar    1  UNL1        0.1421
      6 C           5.9360   -1.6082    0.0000 C.3     1  UNL1        0.0421
      7 C           5.7281   -0.6300    0.0000 C.2     1  UNL1        0.3072
      8 C           3.3090    1.9172    0.0000 C.ar    1  UNL1       -0.0173
      9 C           6.8870   -1.9172    0.0000 C.3     1  UNL1       -0.0552
     10 C           2.3090    1.9172    0.0000 C.ar    1  UNL1       -0.0235
     11 C           2.0000    0.9661    0.0000 C.ar    1  UNL1        0.0922
     12 H           5.1887    0.6788    0.0000 H       1  UNL1        0.0780
     13 H           4.6554    1.2711    0.0000 H       1  UNL1        0.0780
     14 H           5.3164   -1.6298    0.0000 H       1  UNL1        0.0375
     15 H           5.8497   -2.2222    0.0000 H       1  UNL1        0.0375
     16 H           3.6734    2.4188    0.0000 H       1  UNL1        0.0653
     17 H           6.6954   -2.5069    0.0000 H       1  UNL1        0.0235
     18 H           7.4767   -2.1088    0.0000 H       1  UNL1        0.0235
     19 H           7.0786   -1.3276    0.0000 H       1  UNL1        0.0235
     20 H           1.9446    2.4188    0.0000 H       1  UNL1        0.0649
     21 H           1.4103    0.7746    0.0000 H       1  UNL1        0.1029
@<TRIPOS>BOND
     1     1     4    1
     2     1     7    1
     3     2     5   ar
     4     2    11   ar
     5     3     7    2
     6     4     5    1
     7     4    12    1
     8     4    13    1
     9     5     8   ar
    10     6     7    1
    11     6     9    1
    12     6    14    1
    13     6    15    1
    14     8    10   ar
    15     8    16    1
    16     9    17    1
    17     9    18    1
    18     9    19    1
    19    10    11   ar
    20    10    20    1
    21    11    21    1
