@<TRIPOS>MOLECULE
IMPHY004729
 55 58 0 0 0
SMALL
GASTEIGER

@<TRIPOS>ATOM
      1 O          10.4263   -2.8403    0.0000 O.3     1  UNL1       -0.4815
      2 O           6.0682   -1.3056    0.0000 O.2     1  UNL1       -0.4539
      3 O           8.6663    0.1944    0.0000 O.3     1  UNL1       -0.5053
      4 O           6.0682    1.6944    0.0000 O.2     1  UNL1       -0.2866
      5 O           4.3198    1.7290    0.0000 O.3     1  UNL1       -0.5058
      6 O           2.5381   -1.3298    0.0000 O.3     1  UNL1       -0.5065
      7 C          11.3324   -2.3264    0.0000 C.3     1  UNL1        0.1235
      8 C           9.5323   -1.3056    0.0000 C.ar    1  UNL1        0.0586
      9 C           9.5323   -2.3056    0.0000 C.ar    1  UNL1        0.1324
     10 C           7.8003   -1.3056    0.0000 C.ar    1  UNL1        0.0599
     11 C          11.3324   -1.2848    0.0000 C.2     1  UNL1       -0.0408
     12 C           6.9343   -0.8056    0.0000 C.ar    1  UNL1        0.1462
     13 C           8.6663   -0.8056    0.0000 C.ar    1  UNL1        0.1381
     14 C          10.4263   -0.7710    0.0000 C.2     1  UNL1       -0.0478
     15 C           6.9343    0.1944    0.0000 C.ar    1  UNL1        0.0467
     16 C          12.3324   -2.3303    0.0000 C.3     1  UNL1       -0.0215
     17 C          11.8290   -3.1944    0.0000 C.3     1  UNL1       -0.0215
     18 C           8.6663   -2.8056    0.0000 C.ar    1  UNL1       -0.0184
     19 C           7.8003   -2.3056    0.0000 C.ar    1  UNL1       -0.0441
     20 C           7.8003    0.6944    0.0000 C.3     1  UNL1       -0.0021
     21 C           5.2022    0.1944    0.0000 C.ar    1  UNL1        0.1058
     22 C           6.0682    0.6944    0.0000 C.ar    1  UNL1        0.2001
     23 C           5.2022   -0.8056    0.0000 C.ar    1  UNL1        0.1463
     24 C           4.3083    0.7290    0.0000 C.ar    1  UNL1        0.1347
     25 C           7.8003    1.6944    0.0000 C.2     1  UNL1       -0.0807
     26 C           4.3083   -1.3403    0.0000 C.ar    1  UNL1        0.0231
     27 C           3.4022    0.2152    0.0000 C.ar    1  UNL1        0.0223
     28 C           3.4022   -0.8264    0.0000 C.ar    1  UNL1        0.1239
     29 C           8.6663    2.1944    0.0000 C.2     1  UNL1       -0.0793
     30 C           8.6663    3.1944    0.0000 C.3     1  UNL1       -0.0440
     31 C           9.5323    1.6944    0.0000 C.3     1  UNL1       -0.0440
     32 H          11.8681   -0.9727    0.0000 H       1  UNL1        0.0611
     33 H          10.4191   -0.1510    0.0000 H       1  UNL1        0.0624
     34 H          12.3300   -2.9503    0.0000 H       1  UNL1        0.0271
     35 H          12.9524   -2.3327    0.0000 H       1  UNL1        0.0271
     36 H          12.3347   -1.7103    0.0000 H       1  UNL1        0.0271
     37 H          11.2909   -3.5023    0.0000 H       1  UNL1        0.0271
     38 H          12.1369   -3.7325    0.0000 H       1  UNL1        0.0271
     39 H          12.3671   -2.8864    0.0000 H       1  UNL1        0.0271
     40 H           8.6663   -3.4256    0.0000 H       1  UNL1        0.0654
     41 H           7.2634   -2.6156    0.0000 H       1  UNL1        0.0627
     42 H           8.0124    0.1118    0.0000 H       1  UNL1        0.0358
     43 H           8.4109    0.8020    0.0000 H       1  UNL1        0.0358
     44 H           7.2634    2.0044    0.0000 H       1  UNL1        0.0575
     45 H           4.3154   -1.9602    0.0000 H       1  UNL1        0.0691
     46 H           9.2033    0.5044    0.0000 H       1  UNL1        0.2922
     47 H           2.8665    0.5273    0.0000 H       1  UNL1        0.0691
     48 H           9.2863    3.1944    0.0000 H       1  UNL1        0.0274
     49 H           9.2224    1.1574    0.0000 H       1  UNL1        0.0274
     50 H          10.0693    1.3844    0.0000 H       1  UNL1        0.0274
     51 H           9.8424    2.2313    0.0000 H       1  UNL1        0.0274
     52 H           8.6663    3.8144    0.0000 H       1  UNL1        0.0274
     53 H           8.0463    3.1944    0.0000 H       1  UNL1        0.0274
     54 H           3.7865    2.0452    0.0000 H       1  UNL1        0.2922
     55 H           2.0000   -1.0218    0.0000 H       1  UNL1        0.2921
@<TRIPOS>BOND
     1     1     7    1
     2     1     9    1
     3     2    12   ar
     4     2    23   ar
     5     3    13    1
     6     3    46    1
     7     4    22    2
     8     5    24    1
     9     5    54    1
    10     6    28    1
    11     6    55    1
    12     7    11    1
    13     7    16    1
    14     7    17    1
    15     8     9   ar
    16     8    13   ar
    17     8    14    1
    18     9    18   ar
    19    10    12    1
    20    10    13   ar
    21    10    19   ar
    22    11    14    2
    23    11    32    1
    24    12    15   ar
    25    14    33    1
    26    15    20    1
    27    15    22   ar
    28    16    34    1
    29    16    35    1
    30    16    36    1
    31    17    37    1
    32    17    38    1
    33    17    39    1
    34    18    19   ar
    35    18    40    1
    36    19    41    1
    37    20    25    1
    38    20    42    1
    39    20    43    1
    40    21    22   ar
    41    21    23   ar
    42    21    24   ar
    43    23    26   ar
    44    24    27   ar
    45    25    29    2
    46    25    44    1
    47    26    28   ar
    48    26    45    1
    49    27    28   ar
    50    27    47    1
    51    29    30    1
    52    29    31    1
    53    30    48    1
    54    30    52    1
    55    30    53    1
    56    31    49    1
    57    31    50    1
    58    31    51    1
