@<TRIPOS>MOLECULE
IMPHY017520
 20 20 0 0 0
SMALL
GASTEIGER

@<TRIPOS>ATOM
      1 O           4.5981    2.5000    0.0000 O.2     1  UNL1       -0.2956
      2 O           5.4641    1.0000    0.0000 O.2     1  UNL1       -0.2956
      3 C           2.8660   -0.5000    0.0000 C.ar    1  UNL1       -0.0243
      4 C           3.7320   -1.0000    0.0000 C.ar    1  UNL1       -0.0546
      5 C           2.0000   -1.0000    0.0000 C.ar    1  UNL1       -0.0546
      6 C           2.8660    0.5000    0.0000 C.2     1  UNL1       -0.0413
      7 C           3.7320   -2.0000    0.0000 C.ar    1  UNL1       -0.0612
      8 C           2.0000   -2.0000    0.0000 C.ar    1  UNL1       -0.0612
      9 C           2.8660   -2.5000    0.0000 C.ar    1  UNL1       -0.0617
     10 C           3.7320    1.0000    0.0000 C.2     1  UNL1        0.0539
     11 C           3.7320    2.0000    0.0000 C.2     1  UNL1        0.1533
     12 C           4.5981    0.5000    0.0000 C.2     1  UNL1        0.1533
     13 H           4.2690   -0.6900    0.0000 H       1  UNL1        0.0623
     14 H           1.4631   -0.6900    0.0000 H       1  UNL1        0.0623
     15 H           2.3291    0.8100    0.0000 H       1  UNL1        0.0631
     16 H           4.2690   -2.3100    0.0000 H       1  UNL1        0.0618
     17 H           1.4631   -2.3100    0.0000 H       1  UNL1        0.0618
     18 H           2.8660   -3.1200    0.0000 H       1  UNL1        0.0618
     19 H           3.1951    2.3100    0.0000 H       1  UNL1        0.1082
     20 H           4.5981   -0.1200    0.0000 H       1  UNL1        0.1082
@<TRIPOS>BOND
     1     1    11    2
     2     2    12    2
     3     3     4   ar
     4     3     5   ar
     5     3     6    1
     6     4     7   ar
     7     4    13    1
     8     5     8   ar
     9     5    14    1
    10     6    10    2
    11     6    15    1
    12     7     9   ar
    13     7    16    1
    14     8     9   ar
    15     8    17    1
    16     9    18    1
    17    10    11    1
    18    10    12    1
    19    11    19    1
    20    12    20    1
