@<TRIPOS>MOLECULE
IMPHY009617
 58 60 0 0 0
SMALL
GASTEIGER

@<TRIPOS>ATOM
      1 O           2.1340    2.5000    0.0000 O.3     1  UNL1       -0.3909
      2 O           7.3301   -2.5000    0.0000 O.3     1  UNL1       -0.4878
      3 O          10.8221   -2.5347    0.0000 O.2     1  UNL1       -0.4220
      4 O          12.5923   -2.5242    0.0000 O.2     1  UNL1       -0.2452
      5 C           3.0000    1.0000    0.0000 C.3     1  UNL1        0.0123
      6 C           3.0000    2.0000    0.0000 C.3     1  UNL1        0.0643
      7 C           3.8660    0.5000    0.0000 C.2     1  UNL1       -0.0622
      8 C           3.8660    2.5000    0.0000 C.3     1  UNL1       -0.0224
      9 C           4.7320    2.0000    0.0000 C.3     1  UNL1       -0.0294
     10 C           4.7320    1.0000    0.0000 C.2     1  UNL1       -0.0727
     11 C           2.0000    1.0000    0.0000 C.3     1  UNL1       -0.0537
     12 C           2.5000    0.1340    0.0000 C.3     1  UNL1       -0.0537
     13 C           3.8660   -0.5000    0.0000 C.3     1  UNL1       -0.0272
     14 C           4.7320   -1.0000    0.0000 C.3     1  UNL1       -0.0282
     15 C           5.5981    0.5000    0.0000 C.3     1  UNL1       -0.0435
     16 C           4.7320   -2.0000    0.0000 C.2     1  UNL1       -0.0731
     17 C           3.8660   -2.5000    0.0000 C.3     1  UNL1       -0.0437
     18 C           5.5981   -2.5000    0.0000 C.2     1  UNL1       -0.0481
     19 C           6.4641   -2.0000    0.0000 C.3     1  UNL1        0.1081
     20 C           8.1962   -2.0000    0.0000 C.ar    1  UNL1        0.1245
     21 C           9.0622   -2.5000    0.0000 C.ar    1  UNL1        0.0231
     22 C           8.1962   -1.0000    0.0000 C.ar    1  UNL1       -0.0191
     23 C           9.9282   -2.0000    0.0000 C.ar    1  UNL1        0.1425
     24 C           9.9282   -1.0000    0.0000 C.ar    1  UNL1        0.0178
     25 C           9.0622   -0.5000    0.0000 C.ar    1  UNL1       -0.0476
     26 C          10.8221   -0.4653    0.0000 C.ar    1  UNL1       -0.0443
     27 C          11.7282   -0.9792    0.0000 C.ar    1  UNL1        0.0236
     28 C          11.7282   -2.0208    0.0000 C.ar    1  UNL1        0.3372
     29 H           3.0000    2.6200    0.0000 H       1  UNL1        0.0602
     30 H           4.2646    2.9750    0.0000 H       1  UNL1        0.0293
     31 H           3.4675    2.9750    0.0000 H       1  UNL1        0.0293
     32 H           5.3426    1.8923    0.0000 H       1  UNL1        0.0311
     33 H           4.9441    2.5826    0.0000 H       1  UNL1        0.0311
     34 H           1.9631    0.4440    0.0000 H       1  UNL1        0.0239
     35 H           2.1900   -0.4030    0.0000 H       1  UNL1        0.0239
     36 H           3.0369   -0.1760    0.0000 H       1  UNL1        0.0239
     37 H           2.0000    1.6200    0.0000 H       1  UNL1        0.0239
     38 H           1.3800    1.0000    0.0000 H       1  UNL1        0.0239
     39 H           2.0000    0.3800    0.0000 H       1  UNL1        0.0239
     40 H           3.2554   -0.3923    0.0000 H       1  UNL1        0.0313
     41 H           3.6540   -1.0826    0.0000 H       1  UNL1        0.0313
     42 H           5.3426   -1.1077    0.0000 H       1  UNL1        0.0313
     43 H           4.9441   -0.4174    0.0000 H       1  UNL1        0.0313
     44 H           5.2881   -0.0369    0.0000 H       1  UNL1        0.0274
     45 H           6.1350    0.1900    0.0000 H       1  UNL1        0.0274
     46 H           5.9081    1.0369    0.0000 H       1  UNL1        0.0274
     47 H           2.1340    3.1200    0.0000 H       1  UNL1        0.2098
     48 H           3.5560   -1.9631    0.0000 H       1  UNL1        0.0274
     49 H           3.3291   -2.8100    0.0000 H       1  UNL1        0.0274
     50 H           4.1760   -3.0369    0.0000 H       1  UNL1        0.0274
     51 H           5.5981   -3.1200    0.0000 H       1  UNL1        0.0605
     52 H           6.8626   -1.5250    0.0000 H       1  UNL1        0.0742
     53 H           6.0656   -1.5250    0.0000 H       1  UNL1        0.0742
     54 H           9.0622   -3.1200    0.0000 H       1  UNL1        0.0691
     55 H           7.6592   -0.6900    0.0000 H       1  UNL1        0.0654
     56 H           9.0622    0.1200    0.0000 H       1  UNL1        0.0626
     57 H          10.8150    0.1546    0.0000 H       1  UNL1        0.0627
     58 H          12.2639   -0.6671    0.0000 H       1  UNL1        0.0689
@<TRIPOS>BOND
     1     1     6    1
     2     1    47    1
     3     2    19    1
     4     2    20    1
     5     3    23   ar
     6     3    28   ar
     7     4    28    2
     8     5     6    1
     9     5     7    1
    10     5    11    1
    11     5    12    1
    12     6     8    1
    13     6    29    1
    14     7    10    2
    15     7    13    1
    16     8     9    1
    17     8    30    1
    18     8    31    1
    19     9    10    1
    20     9    32    1
    21     9    33    1
    22    10    15    1
    23    11    37    1
    24    11    38    1
    25    11    39    1
    26    12    34    1
    27    12    35    1
    28    12    36    1
    29    13    14    1
    30    13    40    1
    31    13    41    1
    32    14    16    1
    33    14    42    1
    34    14    43    1
    35    15    44    1
    36    15    45    1
    37    15    46    1
    38    16    17    1
    39    16    18    2
    40    17    48    1
    41    17    49    1
    42    17    50    1
    43    18    19    1
    44    18    51    1
    45    19    52    1
    46    19    53    1
    47    20    21   ar
    48    20    22   ar
    49    21    23   ar
    50    21    54    1
    51    22    25   ar
    52    22    55    1
    53    23    24   ar
    54    24    25   ar
    55    24    26   ar
    56    25    56    1
    57    26    27   ar
    58    26    57    1
    59    27    28   ar
    60    27    58    1
