@<TRIPOS>MOLECULE
IMPHY003547
 68 72 0 0 0
SMALL
GASTEIGER

@<TRIPOS>ATOM
      1 O           6.3507    0.8751    0.0000 O.3     1  UNL1       -0.4765
      2 O           5.0417   -1.2515    0.0000 O.3     1  UNL1       -0.3768
      3 O           5.5739   -2.4184    0.0000 O.3     1  UNL1       -0.3877
      4 O           8.7367   -2.3120    0.0000 O.2     1  UNL1       -0.2752
      5 O           3.7283   -1.2627    0.0000 O.3     1  UNL1       -0.4945
      6 O           2.9789    2.1969    0.0000 O.3     1  UNL1       -0.4949
      7 O           8.8965    3.2402    0.0000 O.3     1  UNL1       -0.4951
      8 N           7.3354   -3.3300    0.0000 N.am    1  UNL1       -0.3073
      9 C           6.6597   -0.0759    0.0000 C.3     1  UNL1        0.1782
     10 C           5.8507   -0.6637    0.0000 C.3     1  UNL1        0.1682
     11 C           7.4624   -0.6623    0.0000 C.3     1  UNL1        0.0450
     12 C           7.1544   -1.6075    0.0000 C.3     1  UNL1        0.0756
     13 C           6.1603   -1.6083    0.0000 C.3     1  UNL1        0.1041
     14 C           5.0417   -0.0759    0.0000 C.ar    1  UNL1        0.0741
     15 C           7.2189    0.7531    0.0000 C.ar    1  UNL1       -0.0003
     16 C           8.4617   -0.6989    0.0000 C.ar    1  UNL1       -0.0392
     17 C           5.3507    0.8751    0.0000 C.ar    1  UNL1        0.1351
     18 C           7.7422   -2.4165    0.0000 C.2     1  UNL1        0.2215
     19 C           4.0263   -0.3082    0.0000 C.ar    1  UNL1        0.1332
     20 C           8.2164    0.6834    0.0000 C.ar    1  UNL1       -0.0512
     21 C           6.7805    1.6519    0.0000 C.ar    1  UNL1       -0.0512
     22 C           4.6657    1.6599    0.0000 C.ar    1  UNL1        0.0224
     23 C           8.9297   -1.5827    0.0000 C.ar    1  UNL1       -0.0581
     24 C           8.9931    0.1482    0.0000 C.ar    1  UNL1       -0.0581
     25 C           3.3233    0.4605    0.0000 C.ar    1  UNL1        0.0224
     26 C           3.6452    1.4512    0.0000 C.ar    1  UNL1        0.1271
     27 C           8.7756    1.5124    0.0000 C.ar    1  UNL1       -0.0196
     28 C           7.3397    2.4810    0.0000 C.ar    1  UNL1       -0.0196
     29 C           9.9290   -1.6193    0.0000 C.ar    1  UNL1       -0.0615
     30 C           9.9924    0.1116    0.0000 C.ar    1  UNL1       -0.0615
     31 C           7.9232   -4.1390    0.0000 C.3     1  UNL1        0.0028
     32 C           6.3409   -3.4346    0.0000 C.3     1  UNL1        0.0028
     33 C           8.3373    2.4112    0.0000 C.ar    1  UNL1        0.1201
     34 C          10.4604   -0.7722    0.0000 C.ar    1  UNL1       -0.0617
     35 C           2.7526   -1.4819    0.0000 C.3     1  UNL1        0.0788
     36 C           2.0000    1.9928    0.0000 C.3     1  UNL1        0.0788
     37 C           8.4581    4.1390    0.0000 C.3     1  UNL1        0.0788
     38 H           7.8174   -1.1706    0.0000 H       1  UNL1        0.0400
     39 H           6.8732   -2.1600    0.0000 H       1  UNL1        0.0428
     40 H           5.5478   -1.5126    0.0000 H       1  UNL1        0.0635
     41 H           5.1065   -1.8681    0.0000 H       1  UNL1        0.2109
     42 H           5.8271   -2.9843    0.0000 H       1  UNL1        0.2099
     43 H           8.4883    0.1261    0.0000 H       1  UNL1        0.0623
     44 H           6.1620    1.6952    0.0000 H       1  UNL1        0.0623
     45 H           4.8641    2.2473    0.0000 H       1  UNL1        0.0691
     46 H           8.6002   -2.1079    0.0000 H       1  UNL1        0.0620
     47 H           8.7030    0.6961    0.0000 H       1  UNL1        0.0620
     48 H           2.7174    0.3293    0.0000 H       1  UNL1        0.0691
     49 H           9.3941    1.4692    0.0000 H       1  UNL1        0.0654
     50 H           7.0679    3.0382    0.0000 H       1  UNL1        0.0654
     51 H          10.2191   -2.1672    0.0000 H       1  UNL1        0.0618
     52 H          10.3219    0.6368    0.0000 H       1  UNL1        0.0618
     53 H           6.2761   -2.8179    0.0000 H       1  UNL1        0.0428
     54 H           5.7243   -3.4994    0.0000 H       1  UNL1        0.0428
     55 H           6.4057   -4.0512    0.0000 H       1  UNL1        0.0428
     56 H           7.4216   -4.5035    0.0000 H       1  UNL1        0.0428
     57 H           8.2877   -4.6406    0.0000 H       1  UNL1        0.0428
     58 H           8.4248   -3.7746    0.0000 H       1  UNL1        0.0428
     59 H          11.0800   -0.7949    0.0000 H       1  UNL1        0.0618
     60 H           2.6167   -0.8770    0.0000 H       1  UNL1        0.0660
     61 H           2.1477   -1.6178    0.0000 H       1  UNL1        0.0660
     62 H           2.8885   -2.0868    0.0000 H       1  UNL1        0.0660
     63 H           1.8734    2.5997    0.0000 H       1  UNL1        0.0660
     64 H           1.3931    1.8662    0.0000 H       1  UNL1        0.0660
     65 H           2.1266    1.3858    0.0000 H       1  UNL1        0.0660
     66 H           9.0154    4.4108    0.0000 H       1  UNL1        0.0660
     67 H           8.1863    4.6963    0.0000 H       1  UNL1        0.0660
     68 H           7.9008    3.8672    0.0000 H       1  UNL1        0.0660
@<TRIPOS>BOND
     1     1     9    1
     2     1    17    1
     3    10     2    1
     4     2    41    1
     5    13     3    1
     6     3    42    1
     7     4    18    2
     8     5    19    1
     9     5    35    1
    10     6    26    1
    11     6    36    1
    12     7    33    1
    13     7    37    1
    14     8    18   am
    15     8    31    1
    16     8    32    1
    17     9    10    1
    18     9    11    1
    19     9    15    1
    20    10    13    1
    21    10    14    1
    22    11    12    1
    23    11    16    1
    24    11    38    1
    25    12    13    1
    26    12    18    1
    27    12    39    1
    28    13    40    1
    29    14    17   ar
    30    14    19   ar
    31    15    20   ar
    32    15    21   ar
    33    16    23   ar
    34    16    24   ar
    35    17    22   ar
    36    19    25   ar
    37    20    27   ar
    38    20    43    1
    39    21    28   ar
    40    21    44    1
    41    22    26   ar
    42    22    45    1
    43    23    29   ar
    44    23    46    1
    45    24    30   ar
    46    24    47    1
    47    25    26   ar
    48    25    48    1
    49    27    33   ar
    50    27    49    1
    51    28    33   ar
    52    28    50    1
    53    29    34   ar
    54    29    51    1
    55    30    34   ar
    56    30    52    1
    57    31    56    1
    58    31    57    1
    59    31    58    1
    60    32    53    1
    61    32    54    1
    62    32    55    1
    63    34    59    1
    64    35    60    1
    65    35    61    1
    66    35    62    1
    67    36    63    1
    68    36    64    1
    69    36    65    1
    70    37    66    1
    71    37    67    1
    72    37    68    1
