@<TRIPOS>MOLECULE
IMPHY000104
 65 68 0 0 0
SMALL
GASTEIGER

@<TRIPOS>ATOM
      1 O           5.9813    2.7338    0.0000 O.3     1  UNL1       -0.3818
      2 O           5.6291    0.5900    0.0000 O.3     1  UNL1       -0.4584
      3 O           4.6383    0.5300    0.0000 O.3     1  UNL1       -0.3888
      4 O           4.2765    4.8058    0.0000 O.3     1  UNL1       -0.4599
      5 O           5.9193    4.2570    0.0000 O.2     1  UNL1       -0.2504
      6 O           7.3196    0.2130    0.0000 O.2     1  UNL1       -0.2453
      7 C           6.9378   -2.6822    0.0000 C.3     1  UNL1       -0.0277
      8 C           5.1103    2.2425    0.0000 C.3     1  UNL1        0.1389
      9 C           4.6226    3.1087    0.0000 C.3     1  UNL1        0.0973
     10 C           6.9328   -1.6822    0.0000 C.3     1  UNL1       -0.0057
     11 C           3.6428    2.9089    0.0000 C.3     1  UNL1        0.0012
     12 C           7.8855   -2.9822    0.0000 C.3     1  UNL1       -0.0402
     13 C           4.4384    1.5098    0.0000 C.3     1  UNL1        0.0885
     14 C           3.5333    1.9209    0.0000 C.3     1  UNL1       -0.0165
     15 C           7.8775   -1.3727    0.0000 C.3     1  UNL1       -0.0455
     16 C           8.4651   -2.1745    0.0000 C.3     1  UNL1       -0.0496
     17 C           6.1591   -3.3095    0.0000 C.3     1  UNL1       -0.0276
     18 C           5.8468    1.5660    0.0000 C.3     1  UNL1        0.1246
     19 C           6.1479   -1.0626    0.0000 C.2     1  UNL1        0.0399
     20 C           2.9798    3.6575    0.0000 C.2     1  UNL1       -0.0357
     21 C           4.9395    4.0572    0.0000 C.2     1  UNL1        0.3141
     22 C           8.2009   -3.9311    0.0000 C.3     1  UNL1       -0.0621
     23 C           5.1830   -3.0919    0.0000 C.2     1  UNL1       -0.0667
     24 C           3.2967    4.6060    0.0000 C.3     1  UNL1        0.1136
     25 C           6.3655   -0.0865    0.0000 C.2     1  UNL1        0.3355
     26 C           5.1741   -1.2900    0.0000 C.2     1  UNL1       -0.0516
     27 C           4.7447   -2.1931    0.0000 C.2     1  UNL1       -0.0618
     28 C           4.5635   -3.8768    0.0000 C.3     1  UNL1       -0.0253
     29 C           2.0000    3.4577    0.0000 C.2     1  UNL1       -0.0960
     30 C           3.5739   -3.7327    0.0000 C.3     1  UNL1       -0.0589
     31 C           4.9334   -4.8058    0.0000 C.3     1  UNL1       -0.0589
     32 H           7.0948   -3.5175    0.0000 H       1  UNL1        0.0312
     33 H           5.4688    3.1895    0.0000 H       1  UNL1        0.0450
     34 H           7.0815   -0.8453    0.0000 H       1  UNL1        0.0354
     35 H           2.8326    2.6518    0.0000 H       1  UNL1        0.0356
     36 H           7.4503   -3.4237    0.0000 H       1  UNL1        0.0301
     37 H           3.9536    1.1234    0.0000 H       1  UNL1        0.0623
     38 H           2.9277    2.0535    0.0000 H       1  UNL1        0.0297
     39 H           3.3377    1.3325    0.0000 H       1  UNL1        0.0297
     40 H           8.4133   -1.0608    0.0000 H       1  UNL1        0.0271
     41 H           7.6236   -0.8071    0.0000 H       1  UNL1        0.0271
     42 H           8.9280   -2.5870    0.0000 H       1  UNL1        0.0268
     43 H           8.9239   -1.7575    0.0000 H       1  UNL1        0.0268
     44 H           5.8929   -3.8695    0.0000 H       1  UNL1        0.0313
     45 H           6.6457   -3.6937    0.0000 H       1  UNL1        0.0313
     46 H           6.4193    1.3280    0.0000 H       1  UNL1        0.0728
     47 H           6.1805    2.0885    0.0000 H       1  UNL1        0.0728
     48 H           7.6126   -4.1267    0.0000 H       1  UNL1        0.0233
     49 H           8.3965   -4.5195    0.0000 H       1  UNL1        0.0233
     50 H           8.7893   -3.7356    0.0000 H       1  UNL1        0.0233
     51 H           3.2801    5.2258    0.0000 H       1  UNL1        0.0745
     52 H           2.6834    4.6973    0.0000 H       1  UNL1        0.0745
     53 H           6.5151    2.4185    0.0000 H       1  UNL1        0.2104
     54 H           4.7851   -0.8072    0.0000 H       1  UNL1        0.0623
     55 H           4.1741    0.1190    0.0000 H       1  UNL1        0.2099
     56 H           4.1247   -2.1962    0.0000 H       1  UNL1        0.0617
     57 H           4.3341   -3.3008    0.0000 H       1  UNL1        0.0340
     58 H           1.5890    3.9218    0.0000 H       1  UNL1        0.0536
     59 H           1.8036    2.8696    0.0000 H       1  UNL1        0.0536
     60 H           3.6633   -3.1192    0.0000 H       1  UNL1        0.0235
     61 H           2.9604   -3.6433    0.0000 H       1  UNL1        0.0235
     62 H           3.4846   -4.3462    0.0000 H       1  UNL1        0.0235
     63 H           4.3574   -5.0352    0.0000 H       1  UNL1        0.0235
     64 H           5.1628   -5.3818    0.0000 H       1  UNL1        0.0235
     65 H           5.5094   -4.5764    0.0000 H       1  UNL1        0.0235
@<TRIPOS>BOND
     1     8     1    1
     2     1    53    1
     3     2    18    1
     4     2    25    1
     5    13     3    1
     6     3    55    1
     7     4    21    1
     8     4    24    1
     9     5    21    2
    10     6    25    2
    11     7    10    1
    12     7    12    1
    13     7    17    1
    14     7    32    1
    15     8     9    1
    16     8    13    1
    17     8    18    1
    18     9    11    1
    19     9    21    1
    20     9    33    1
    21    10    15    1
    22    10    19    1
    23    10    34    1
    24    11    14    1
    25    11    20    1
    26    11    35    1
    27    12    16    1
    28    12    22    1
    29    12    36    1
    30    13    14    1
    31    13    37    1
    32    14    38    1
    33    14    39    1
    34    15    16    1
    35    15    40    1
    36    15    41    1
    37    16    42    1
    38    16    43    1
    39    17    23    1
    40    17    44    1
    41    17    45    1
    42    18    46    1
    43    18    47    1
    44    19    25    1
    45    19    26    2
    46    20    24    1
    47    20    29    2
    48    22    48    1
    49    22    49    1
    50    22    50    1
    51    23    27    2
    52    23    28    1
    53    24    51    1
    54    24    52    1
    55    26    27    1
    56    26    54    1
    57    27    56    1
    58    28    30    1
    59    28    31    1
    60    28    57    1
    61    29    58    1
    62    29    59    1
    63    30    60    1
    64    30    61    1
    65    30    62    1
    66    31    63    1
    67    31    64    1
    68    31    65    1
