@<TRIPOS>MOLECULE
IMPHY001549
 54 57 0 0 0
SMALL
GASTEIGER

@<TRIPOS>ATOM
      1 C           4.8835   -1.2358    0.0000 C.3     1  UNL1       -0.0292
      2 C           4.0274   -1.8292    0.0000 C.3     1  UNL1       -0.0318
      3 C           4.9696   -2.2743    0.0000 C.3     1  UNL1       -0.0284
      4 C           4.7896   -0.1984    0.0000 C.3     1  UNL1       -0.0339
      5 C           3.8887    0.2355    0.0000 C.3     1  UNL1       -0.0322
      6 C           3.0889   -1.3773    0.0000 C.3     1  UNL1       -0.0466
      7 C           3.0191   -0.3380    0.0000 C.3     1  UNL1       -0.0402
      8 C           3.6662    1.2104    0.0000 C.3     1  UNL1       -0.0346
      9 C           5.6906    0.2355    0.0000 C.3     1  UNL1       -0.0471
     10 C           4.2896    1.9922    0.0000 C.3     1  UNL1       -0.0374
     11 C           4.5427   -3.1786    0.0000 C.3     1  UNL1       -0.0593
     12 C           5.9662   -2.1919    0.0000 C.3     1  UNL1       -0.0593
     13 C           5.9131    1.2104    0.0000 C.3     1  UNL1       -0.0434
     14 C           2.7364    1.5621    0.0000 C.3     1  UNL1       -0.0471
     15 C           5.2896    1.9922    0.0000 C.3     1  UNL1       -0.0473
     16 C           3.7399    2.8204    0.0000 C.3     1  UNL1       -0.0473
     17 C           2.7818    2.5551    0.0000 C.3     1  UNL1       -0.0434
     18 C           2.1232    0.1063    0.0000 C.3     1  UNL1       -0.0621
     19 C           6.8881    1.4329    0.0000 C.3     1  UNL1       -0.0624
     20 C           2.0000    3.1786    0.0000 C.3     1  UNL1       -0.0624
     21 H           5.7303   -1.1624    0.0000 H       1  UNL1        0.0312
     22 H           3.6615   -2.5964    0.0000 H       1  UNL1        0.0309
     23 H           5.5290   -0.6177    0.0000 H       1  UNL1        0.0307
     24 H           3.0998    0.5521    0.0000 H       1  UNL1        0.0309
     25 H           2.4723   -1.3124    0.0000 H       1  UNL1        0.0271
     26 H           2.9195   -1.9736    0.0000 H       1  UNL1        0.0271
     27 H           2.5035   -0.6823    0.0000 H       1  UNL1        0.0301
     28 H           4.4948    1.0212    0.0000 H       1  UNL1        0.0306
     29 H           5.8286   -0.3690    0.0000 H       1  UNL1        0.0271
     30 H           6.3106    0.2355    0.0000 H       1  UNL1        0.0271
     31 H           4.6915    2.7412    0.0000 H       1  UNL1        0.0304
     32 H           3.9821   -2.9139    0.0000 H       1  UNL1        0.0235
     33 H           4.2780   -3.7393    0.0000 H       1  UNL1        0.0235
     34 H           5.1034   -3.4433    0.0000 H       1  UNL1        0.0235
     35 H           6.0173   -2.8098    0.0000 H       1  UNL1        0.0235
     36 H           6.5841   -2.1408    0.0000 H       1  UNL1        0.0235
     37 H           5.9151   -1.5740    0.0000 H       1  UNL1        0.0235
     38 H           6.1179    1.7956    0.0000 H       1  UNL1        0.0298
     39 H           2.1234    1.6554    0.0000 H       1  UNL1        0.0271
     40 H           2.5792    0.9624    0.0000 H       1  UNL1        0.0271
     41 H           5.8482    2.2612    0.0000 H       1  UNL1        0.0271
     42 H           5.1517    2.5967    0.0000 H       1  UNL1        0.0271
     43 H           4.2896    3.1071    0.0000 H       1  UNL1        0.0271
     44 H           3.5125    3.3972    0.0000 H       1  UNL1        0.0271
     45 H           2.9059    3.1626    0.0000 H       1  UNL1        0.0298
     46 H           2.3986    0.6618    0.0000 H       1  UNL1        0.0233
     47 H           1.5678    0.3818    0.0000 H       1  UNL1        0.0233
     48 H           1.8478   -0.4492    0.0000 H       1  UNL1        0.0233
     49 H           7.0260    0.8285    0.0000 H       1  UNL1        0.0232
     50 H           7.4925    1.5709    0.0000 H       1  UNL1        0.0232
     51 H           6.7501    2.0374    0.0000 H       1  UNL1        0.0232
     52 H           2.3866    3.6634    0.0000 H       1  UNL1        0.0232
     53 H           1.5153    3.5652    0.0000 H       1  UNL1        0.0232
     54 H           1.6134    2.6939    0.0000 H       1  UNL1        0.0232
@<TRIPOS>BOND
     1     1     2    1
     2     1     3    1
     3     1     4    1
     4     1    21    1
     5     2     3    1
     6     2     6    1
     7     2    22    1
     8     3    11    1
     9     3    12    1
    10     4     5    1
    11     4     9    1
    12     4    23    1
    13     5     7    1
    14     5     8    1
    15     5    24    1
    16     6     7    1
    17     6    25    1
    18     6    26    1
    19     7    18    1
    20     7    27    1
    21     8    10    1
    22     8    14    1
    23     8    28    1
    24     9    13    1
    25     9    29    1
    26     9    30    1
    27    10    15    1
    28    10    16    1
    29    10    31    1
    30    11    32    1
    31    11    33    1
    32    11    34    1
    33    12    35    1
    34    12    36    1
    35    12    37    1
    36    13    15    1
    37    13    19    1
    38    13    38    1
    39    14    17    1
    40    14    39    1
    41    14    40    1
    42    15    41    1
    43    15    42    1
    44    16    17    1
    45    16    43    1
    46    16    44    1
    47    17    20    1
    48    17    45    1
    49    18    46    1
    50    18    47    1
    51    18    48    1
    52    19    49    1
    53    19    50    1
    54    19    51    1
    55    20    52    1
    56    20    53    1
    57    20    54    1
