@<TRIPOS>MOLECULE
IMPHY016978
 21 22 0 0 0
SMALL
GASTEIGER

@<TRIPOS>ATOM
      1 O           6.4103   -0.8047    0.0000 O.3     1  UNL1       -0.4914
      2 O           2.8660    1.0000    0.0000 O.3     1  UNL1       -0.4951
      3 C           6.4103    0.8047    0.0000 C.3     1  UNL1        0.0102
      4 C           5.4641    0.5000    0.0000 C.ar    1  UNL1        0.0009
      5 C           6.9939   -0.0000    0.0000 C.3     1  UNL1        0.0937
      6 C           5.4641   -0.5000    0.0000 C.ar    1  UNL1        0.1240
      7 C           4.5981    1.0000    0.0000 C.ar    1  UNL1       -0.0132
      8 C           4.5981   -1.0000    0.0000 C.ar    1  UNL1       -0.0162
      9 C           3.7320    0.5000    0.0000 C.ar    1  UNL1        0.1206
     10 C           3.7320   -0.5000    0.0000 C.ar    1  UNL1       -0.0165
     11 C           2.0000    0.5000    0.0000 C.3     1  UNL1        0.0788
     12 H           6.9477    1.1140    0.0000 H       1  UNL1        0.0347
     13 H           6.1593    1.3716    0.0000 H       1  UNL1        0.0347
     14 H           7.4548   -0.4147    0.0000 H       1  UNL1        0.0700
     15 H           7.4548    0.4147    0.0000 H       1  UNL1        0.0700
     16 H           4.5981    1.6200    0.0000 H       1  UNL1        0.0658
     17 H           4.5981   -1.6200    0.0000 H       1  UNL1        0.0655
     18 H           3.1951   -0.8100    0.0000 H       1  UNL1        0.0655
     19 H           1.6900    1.0369    0.0000 H       1  UNL1        0.0660
     20 H           1.4631    0.1900    0.0000 H       1  UNL1        0.0660
     21 H           2.3100   -0.0369    0.0000 H       1  UNL1        0.0660
@<TRIPOS>BOND
     1     1     5    1
     2     1     6    1
     3     2     9    1
     4     2    11    1
     5     3     4    1
     6     3     5    1
     7     3    12    1
     8     3    13    1
     9     4     6   ar
    10     4     7   ar
    11     5    14    1
    12     5    15    1
    13     6     8   ar
    14     7     9   ar
    15     7    16    1
    16     8    10   ar
    17     8    17    1
    18     9    10   ar
    19    10    18    1
    20    11    19    1
    21    11    20    1
    22    11    21    1
