@<TRIPOS>MOLECULE
IMPHY013892
 53 57 0 0 0
SMALL
GASTEIGER

@<TRIPOS>ATOM
      1 O           6.8378   -1.1539    0.0000 O.3     1  UNL1       -0.4568
      2 O           1.1390    0.9317    0.0000 O.2     1  UNL1       -0.2756
      3 O           8.5661   -1.0398    0.0000 O.2     1  UNL1       -0.2433
      4 N           6.6116    1.9070    0.0000 N.3     1  UNL1       -0.2985
      5 N           2.5127    2.0482    0.0000 N.am    1  UNL1       -0.2978
      6 N           7.0323   -3.2334    0.0000 N.ar    1  UNL1       -0.3556
      7 C           4.5616    2.2135    0.0000 C.3     1  UNL1       -0.0091
      8 C           4.3027    3.1794    0.0000 C.3     1  UNL1       -0.0092
      9 C           5.7826    1.3478    0.0000 C.3     1  UNL1        0.0180
     10 C           5.0393    4.1620    0.0000 C.3     1  UNL1       -0.0417
     11 C           2.8711    2.9818    0.0000 C.3     1  UNL1        0.0300
     12 C           6.3360    2.8683    0.0000 C.3     1  UNL1        0.0037
     13 C           3.2899    1.4188    0.0000 C.3     1  UNL1        0.0192
     14 C           5.8392    0.3077    0.0000 C.3     1  UNL1        0.0003
     15 C           2.2281    3.8013    0.0000 C.3     1  UNL1       -0.0336
     16 C           7.5548    1.4649    0.0000 C.3     1  UNL1        0.0025
     17 C           6.7719   -0.1561    0.0000 C.3     1  UNL1        0.1061
     18 C           7.6354    0.4264    0.0000 C.3     1  UNL1       -0.0028
     19 C           1.1981    3.6462    0.0000 C.3     1  UNL1       -0.0431
     20 C           1.4865    1.8694    0.0000 C.2     1  UNL1        0.2158
     21 C           0.8248    2.6738    0.0000 C.3     1  UNL1        0.0242
     22 C           7.7349   -1.5958    0.0000 C.2     1  UNL1        0.3559
     23 C           7.8008   -2.5936    0.0000 C.ar    1  UNL1        0.1244
     24 C           8.6468   -3.1268    0.0000 C.ar    1  UNL1       -0.0300
     25 C           7.4033   -4.1620    0.0000 C.ar    1  UNL1        0.0024
     26 C           8.4011   -4.0961    0.0000 C.ar    1  UNL1       -0.0436
     27 H           4.7815    1.3924    0.0000 H       1  UNL1        0.0331
     28 H           4.0827    4.0004    0.0000 H       1  UNL1        0.0331
     29 H           5.0779    0.8725    0.0000 H       1  UNL1        0.0467
     30 H           4.7215    4.6944    0.0000 H       1  UNL1        0.0273
     31 H           5.6525    4.2540    0.0000 H       1  UNL1        0.0273
     32 H           3.1757    3.7753    0.0000 H       1  UNL1        0.0503
     33 H           6.3410    3.4883    0.0000 H       1  UNL1        0.0430
     34 H           6.9503    2.9521    0.0000 H       1  UNL1        0.0430
     35 H           3.6744    0.9325    0.0000 H       1  UNL1        0.0468
     36 H           2.8489    0.9830    0.0000 H       1  UNL1        0.0468
     37 H           5.6622   -0.2865    0.0000 H       1  UNL1        0.0316
     38 H           5.2235    0.3805    0.0000 H       1  UNL1        0.0316
     39 H           2.0323    4.3895    0.0000 H       1  UNL1        0.0283
     40 H           2.7742    4.0948    0.0000 H       1  UNL1        0.0283
     41 H           7.7180    2.0630    0.0000 H       1  UNL1        0.0428
     42 H           8.1720    1.4064    0.0000 H       1  UNL1        0.0428
     43 H           7.3286   -0.4290    0.0000 H       1  UNL1        0.0735
     44 H           8.2362    0.5795    0.0000 H       1  UNL1        0.0313
     45 H           7.8890   -0.1394    0.0000 H       1  UNL1        0.0313
     46 H           0.5898    3.7661    0.0000 H       1  UNL1        0.0270
     47 H           1.2121    4.2661    0.0000 H       1  UNL1        0.0270
     48 H           0.4205    2.2038    0.0000 H       1  UNL1        0.0358
     49 H           0.2925    2.9918    0.0000 H       1  UNL1        0.0358
     50 H           6.4313   -3.0811    0.0000 H       1  UNL1        0.1655
     51 H           9.2225   -2.8967    0.0000 H       1  UNL1        0.0641
     52 H           7.0727   -4.6865    0.0000 H       1  UNL1        0.0807
     53 H           8.7978   -4.5726    0.0000 H       1  UNL1        0.0633
@<TRIPOS>BOND
     1    17     1    1
     2     1    22    1
     3     2    20    2
     4     3    22    2
     5     4     9    1
     6     4    12    1
     7     4    16    1
     8     5    11    1
     9     5    13    1
    10     5    20   am
    11     6    23   ar
    12     6    25   ar
    13     6    50    1
    14     7     9    1
    15     7    10    1
    16     7    13    1
    17     7    27    1
    18     8    10    1
    19     8    11    1
    20     8    12    1
    21     8    28    1
    22     9    14    1
    23     9    29    1
    24    10    30    1
    25    10    31    1
    26    11    15    1
    27    11    32    1
    28    12    33    1
    29    12    34    1
    30    13    35    1
    31    13    36    1
    32    14    17    1
    33    14    37    1
    34    14    38    1
    35    15    19    1
    36    15    39    1
    37    15    40    1
    38    16    18    1
    39    16    41    1
    40    16    42    1
    41    17    18    1
    42    17    43    1
    43    18    44    1
    44    18    45    1
    45    19    21    1
    46    19    46    1
    47    19    47    1
    48    20    21    1
    49    21    48    1
    50    21    49    1
    51    22    23    1
    52    23    24   ar
    53    24    26   ar
    54    24    51    1
    55    25    26   ar
    56    25    52    1
    57    26    53    1
