@<TRIPOS>MOLECULE
IMPHY011892
 61 63 0 0 0
SMALL
GASTEIGER

@<TRIPOS>ATOM
      1 O           8.0622    1.7890    0.0000 O.3     1  UNL1       -0.4543
      2 O           9.7942    0.7890    0.0000 O.3     1  UNL1       -0.4519
      3 O           9.2942    4.6550    0.0000 O.3     1  UNL1       -0.3772
      4 O          11.5263    1.7890    0.0000 O.3     1  UNL1       -0.3879
      5 O          11.2942    4.6550    0.0000 O.3     1  UNL1       -0.4786
      6 O           9.7942    5.5210    0.0000 O.2     1  UNL1       -0.2478
      7 O           7.1962    3.2890    0.0000 O.2     1  UNL1       -0.2456
      8 O           8.0622    0.7890    0.0000 O.2     1  UNL1       -0.2456
      9 O           2.0000    2.2890    0.0000 O.3     1  UNL1       -0.5033
     10 O           6.3301   -4.2110    0.0000 O.3     1  UNL1       -0.5033
     11 O           2.0000    0.2890    0.0000 O.3     1  UNL1       -0.5033
     12 O           8.0622   -5.2110    0.0000 O.3     1  UNL1       -0.5033
     13 C           9.7942    3.7890    0.0000 C.3     1  UNL1        0.1678
     14 C           8.9282    2.2890    0.0000 C.3     1  UNL1        0.1457
     15 C           9.7942    1.7890    0.0000 C.3     1  UNL1        0.1658
     16 C           8.9282    3.2890    0.0000 C.3     1  UNL1        0.0274
     17 C          10.6603    2.2890    0.0000 C.3     1  UNL1        0.0987
     18 C          10.6603    3.2890    0.0000 C.3     1  UNL1        0.0163
     19 C          10.2942    4.6550    0.0000 C.2     1  UNL1        0.3370
     20 C           7.1962    2.2890    0.0000 C.2     1  UNL1        0.3323
     21 C           8.9282    0.2890    0.0000 C.2     1  UNL1        0.3324
     22 C           6.3301    1.7890    0.0000 C.2     1  UNL1        0.0231
     23 C           8.9282   -0.7110    0.0000 C.2     1  UNL1        0.0231
     24 C           5.4641    2.2890    0.0000 C.2     1  UNL1       -0.0477
     25 C           8.0622   -1.2110    0.0000 C.2     1  UNL1       -0.0477
     26 C           4.5981    1.7890    0.0000 C.ar    1  UNL1       -0.0211
     27 C           8.0622   -2.2110    0.0000 C.ar    1  UNL1       -0.0211
     28 C           3.7320    2.2890    0.0000 C.ar    1  UNL1       -0.0094
     29 C           7.1962   -2.7110    0.0000 C.ar    1  UNL1       -0.0094
     30 C           4.5981    0.7890    0.0000 C.ar    1  UNL1       -0.0509
     31 C           8.9282   -2.7110    0.0000 C.ar    1  UNL1       -0.0509
     32 C           2.8660    1.7890    0.0000 C.ar    1  UNL1        0.1588
     33 C           7.1962   -3.7110    0.0000 C.ar    1  UNL1        0.1588
     34 C           3.7320    0.2890    0.0000 C.ar    1  UNL1       -0.0160
     35 C           8.9282   -3.7110    0.0000 C.ar    1  UNL1       -0.0160
     36 C           2.8660    0.7890    0.0000 C.ar    1  UNL1        0.1582
     37 C           8.0622   -4.2110    0.0000 C.ar    1  UNL1        0.1582
     38 H           8.9282    1.6690    0.0000 H       1  UNL1        0.0773
     39 H          10.3312    1.4790    0.0000 H       1  UNL1        0.0798
     40 H           8.7162    3.8716    0.0000 H       1  UNL1        0.0335
     41 H           8.3176    3.1813    0.0000 H       1  UNL1        0.0335
     42 H          11.1972    2.5990    0.0000 H       1  UNL1        0.0632
     43 H          11.2708    3.1813    0.0000 H       1  UNL1        0.0325
     44 H          10.8723    3.8716    0.0000 H       1  UNL1        0.0325
     45 H           8.6742    4.6550    0.0000 H       1  UNL1        0.2109
     46 H          12.0632    2.0990    0.0000 H       1  UNL1        0.2099
     47 H          11.6042    5.1919    0.0000 H       1  UNL1        0.2951
     48 H           6.3301    1.1690    0.0000 H       1  UNL1        0.0689
     49 H           9.4651   -1.0210    0.0000 H       1  UNL1        0.0689
     50 H           5.4641    2.9090    0.0000 H       1  UNL1        0.0626
     51 H           7.5252   -0.9010    0.0000 H       1  UNL1        0.0626
     52 H           3.7320    2.9090    0.0000 H       1  UNL1        0.0661
     53 H           6.6592   -2.4010    0.0000 H       1  UNL1        0.0661
     54 H           5.1350    0.4790    0.0000 H       1  UNL1        0.0625
     55 H           9.4651   -2.4010    0.0000 H       1  UNL1        0.0625
     56 H           3.7320   -0.3310    0.0000 H       1  UNL1        0.0655
     57 H           9.4651   -4.0210    0.0000 H       1  UNL1        0.0655
     58 H           2.0000    2.9090    0.0000 H       1  UNL1        0.2923
     59 H           6.3301   -4.8310    0.0000 H       1  UNL1        0.2923
     60 H           2.0000   -0.3310    0.0000 H       1  UNL1        0.2923
     61 H           8.5991   -5.5210    0.0000 H       1  UNL1        0.2923
@<TRIPOS>BOND
     1    14     1    1
     2     1    20    1
     3    15     2    1
     4     2    21    1
     5    13     3    1
     6     3    45    1
     7    17     4    1
     8     4    46    1
     9     5    19    1
    10     5    47    1
    11     6    19    2
    12     7    20    2
    13     8    21    2
    14     9    32    1
    15     9    58    1
    16    10    33    1
    17    10    59    1
    18    11    36    1
    19    11    60    1
    20    12    37    1
    21    12    61    1
    22    13    16    1
    23    13    18    1
    24    13    19    1
    25    14    15    1
    26    14    16    1
    27    14    38    1
    28    15    17    1
    29    15    39    1
    30    16    40    1
    31    16    41    1
    32    17    18    1
    33    17    42    1
    34    18    43    1
    35    18    44    1
    36    20    22    1
    37    21    23    1
    38    22    24    2
    39    22    48    1
    40    23    25    2
    41    23    49    1
    42    24    26    1
    43    24    50    1
    44    25    27    1
    45    25    51    1
    46    26    28   ar
    47    26    30   ar
    48    27    29   ar
    49    27    31   ar
    50    28    32   ar
    51    28    52    1
    52    29    33   ar
    53    29    53    1
    54    30    34   ar
    55    30    54    1
    56    31    35   ar
    57    31    55    1
    58    32    36   ar
    59    33    37   ar
    60    34    36   ar
    61    34    56    1
    62    35    37   ar
    63    35    57    1
