@<TRIPOS>MOLECULE
IMPHY013656
 75 78 0 0 0
SMALL
GASTEIGER

@<TRIPOS>ATOM
      1 O           8.4034    2.5489    0.0000 O.2     1  UNL1       -0.2968
      2 C           6.5251   -0.6074    0.0000 C.3     1  UNL1       -0.0259
      3 C           6.5251   -1.6074    0.0000 C.3     1  UNL1       -0.0323
      4 C           5.6591   -2.1074    0.0000 C.3     1  UNL1       -0.0344
      5 C           4.7931   -1.6074    0.0000 C.3     1  UNL1       -0.0323
      6 C           3.8831   -2.1143    0.0000 C.3     1  UNL1       -0.0261
      7 C           7.4714   -0.3027    0.0000 C.3     1  UNL1       -0.0324
      8 C           5.6591   -0.1074    0.0000 C.3     1  UNL1       -0.0468
      9 C           3.8751   -3.1559    0.0000 C.3     1  UNL1       -0.0354
     10 C           4.7931   -0.6074    0.0000 C.3     1  UNL1       -0.0489
     11 C           7.4714   -1.9122    0.0000 C.3     1  UNL1       -0.0492
     12 C           5.6752   -3.1489    0.0000 C.3     1  UNL1       -0.0494
     13 C           8.0550   -1.1074    0.0000 C.3     1  UNL1       -0.0492
     14 C           4.7771   -3.6767    0.0000 C.3     1  UNL1       -0.0494
     15 C           2.9562   -1.5502    0.0000 C.3     1  UNL1       -0.0471
     16 C           6.5251    0.3926    0.0000 C.3     1  UNL1       -0.0590
     17 C           7.7820    0.6478    0.0000 C.3     1  UNL1       -0.0339
     18 C           2.9396   -3.7056    0.0000 C.3     1  UNL1       -0.0497
     19 C           3.8908   -1.1143    0.0000 C.3     1  UNL1       -0.0590
     20 C           2.0084   -2.0781    0.0000 C.3     1  UNL1       -0.0525
     21 C           2.0000   -3.1631    0.0000 C.3     1  UNL1       -0.0528
     22 C           8.7605    0.8540    0.0000 C.3     1  UNL1        0.0093
     23 C           7.1142    1.3921    0.0000 C.3     1  UNL1       -0.0618
     24 C           9.0712    1.8046    0.0000 C.2     1  UNL1        0.1403
     25 C          10.0497    2.0108    0.0000 C.3     1  UNL1        0.0352
     26 C          10.7175    1.2665    0.0000 C.3     1  UNL1       -0.0520
     27 C          10.3604    2.9613    0.0000 C.2     1  UNL1       -0.0698
     28 C          11.3389    3.1675    0.0000 C.3     1  UNL1       -0.0434
     29 C           9.6925    3.7056    0.0000 C.2     1  UNL1       -0.0991
     30 H           6.6151   -2.4527    0.0000 H       1  UNL1        0.0309
     31 H           6.3985   -2.5267    0.0000 H       1  UNL1        0.0306
     32 H           5.5292   -1.1824    0.0000 H       1  UNL1        0.0309
     33 H           8.3111   -0.1708    0.0000 H       1  UNL1        0.0309
     34 H           6.0576    0.3675    0.0000 H       1  UNL1        0.0271
     35 H           5.2606    0.3675    0.0000 H       1  UNL1        0.0271
     36 H           3.8774   -3.7759    0.0000 H       1  UNL1        0.0306
     37 H           4.5810   -0.0248    0.0000 H       1  UNL1        0.0268
     38 H           4.1825   -0.7151    0.0000 H       1  UNL1        0.0268
     39 H           7.2203   -2.4791    0.0000 H       1  UNL1        0.0268
     40 H           8.0087   -2.2214    0.0000 H       1  UNL1        0.0268
     41 H           5.8932   -3.7293    0.0000 H       1  UNL1        0.0268
     42 H           6.2843   -3.0334    0.0000 H       1  UNL1        0.0268
     43 H           8.5158   -1.5222    0.0000 H       1  UNL1        0.0268
     44 H           8.5158   -0.6927    0.0000 H       1  UNL1        0.0268
     45 H           4.3798   -4.1527    0.0000 H       1  UNL1        0.0268
     46 H           5.1781   -4.1496    0.0000 H       1  UNL1        0.0268
     47 H           3.3645   -1.0835    0.0000 H       1  UNL1        0.0271
     48 H           2.5663   -1.0682    0.0000 H       1  UNL1        0.0271
     49 H           7.1451    0.3926    0.0000 H       1  UNL1        0.0235
     50 H           6.5251    1.0126    0.0000 H       1  UNL1        0.0235
     51 H           5.9051    0.3926    0.0000 H       1  UNL1        0.0235
     52 H           7.9746    1.2371    0.0000 H       1  UNL1        0.0305
     53 H           2.5423   -4.1816    0.0000 H       1  UNL1        0.0268
     54 H           3.3406   -4.1785    0.0000 H       1  UNL1        0.0268
     55 H           4.5108   -1.1191    0.0000 H       1  UNL1        0.0235
     56 H           3.8956   -0.4943    0.0000 H       1  UNL1        0.0235
     57 H           3.2708   -1.1095    0.0000 H       1  UNL1        0.0235
     58 H           1.8038   -1.4929    0.0000 H       1  UNL1        0.0265
     59 H           1.3967   -2.1795    0.0000 H       1  UNL1        0.0265
     60 H           1.3900   -3.0523    0.0000 H       1  UNL1        0.0265
     61 H           1.7864   -3.7452    0.0000 H       1  UNL1        0.0265
     62 H           8.7811    0.2344    0.0000 H       1  UNL1        0.0344
     63 H           9.3743    0.7667    0.0000 H       1  UNL1        0.0344
     64 H           7.5756    1.8062    0.0000 H       1  UNL1        0.0233
     65 H           6.7001    1.8536    0.0000 H       1  UNL1        0.0233
     66 H           6.6527    0.9781    0.0000 H       1  UNL1        0.0233
     67 H           9.8571    1.4215    0.0000 H       1  UNL1        0.0420
     68 H          10.2561    0.8524    0.0000 H       1  UNL1        0.0239
     69 H          11.1316    0.8050    0.0000 H       1  UNL1        0.0239
     70 H          11.1790    1.6805    0.0000 H       1  UNL1        0.0239
     71 H          11.4667    2.5608    0.0000 H       1  UNL1        0.0274
     72 H          11.9455    3.2954    0.0000 H       1  UNL1        0.0274
     73 H          11.2110    3.7742    0.0000 H       1  UNL1        0.0274
     74 H           9.8851    4.2949    0.0000 H       1  UNL1        0.0535
     75 H           9.0858    3.5778    0.0000 H       1  UNL1        0.0535
@<TRIPOS>BOND
     1     1    24    2
     2     2     3    1
     3     2     7    1
     4     2     8    1
     5     2    16    1
     6     3     4    1
     7     3    11    1
     8     3    30    1
     9     4     5    1
    10     4    12    1
    11     4    31    1
    12     5     6    1
    13     5    10    1
    14     5    32    1
    15     6     9    1
    16     6    15    1
    17     6    19    1
    18     7    13    1
    19     7    17    1
    20     7    33    1
    21     8    10    1
    22     8    34    1
    23     8    35    1
    24     9    14    1
    25     9    18    1
    26     9    36    1
    27    10    37    1
    28    10    38    1
    29    11    13    1
    30    11    39    1
    31    11    40    1
    32    12    14    1
    33    12    41    1
    34    12    42    1
    35    13    43    1
    36    13    44    1
    37    14    45    1
    38    14    46    1
    39    15    20    1
    40    15    47    1
    41    15    48    1
    42    16    49    1
    43    16    50    1
    44    16    51    1
    45    17    22    1
    46    17    23    1
    47    17    52    1
    48    18    21    1
    49    18    53    1
    50    18    54    1
    51    19    55    1
    52    19    56    1
    53    19    57    1
    54    20    21    1
    55    20    58    1
    56    20    59    1
    57    21    60    1
    58    21    61    1
    59    22    24    1
    60    22    62    1
    61    22    63    1
    62    23    64    1
    63    23    65    1
    64    23    66    1
    65    24    25    1
    66    25    26    1
    67    25    27    1
    68    25    67    1
    69    26    68    1
    70    26    69    1
    71    26    70    1
    72    27    28    1
    73    27    29    2
    74    28    71    1
    75    28    72    1
    76    28    73    1
    77    29    74    1
    78    29    75    1
