@<TRIPOS>MOLECULE
IMPHY012525
 102 108 0 0 0
SMALL
GASTEIGER

@<TRIPOS>ATOM
      1 O           3.5316    1.7093    0.0000 O.3     1  UNL1       -0.3815
      2 O           3.0903    2.5474    0.0000 O.3     1  UNL1       -0.3851
      3 O           4.6079    1.3785    0.0000 O.3     1  UNL1       -0.3765
      4 O           6.4305    5.1404    0.0000 O.3     1  UNL1       -0.3791
      5 O           2.7137    4.7145    0.0000 O.3     1  UNL1       -0.3790
      6 O           2.3129    5.5983    0.0000 O.3     1  UNL1       -0.3793
      7 O           7.2966    0.9052    0.0000 O.3     1  UNL1       -0.4605
      8 O           6.4305   -0.5948    0.0000 O.2     1  UNL1       -0.2449
      9 O           8.1626   -3.5948    0.0000 O.2     1  UNL1       -0.2755
     10 O           5.5645   -6.0948    0.0000 O.3     1  UNL1       -0.4679
     11 O           4.6985   -4.5948    0.0000 O.2     1  UNL1       -0.2508
     12 N           7.6259    3.3113    0.0000 N.3     1  UNL1       -0.2955
     13 N           7.2966   -2.0948    0.0000 N.am    1  UNL1       -0.2848
     14 C           5.6792    3.7066    0.0000 C.3     1  UNL1        0.0245
     15 C           5.6792    2.8390    0.0000 C.3     1  UNL1        0.0078
     16 C           6.6812    3.6005    0.0000 C.3     1  UNL1        0.0529
     17 C           5.0009    4.2475    0.0000 C.3     1  UNL1       -0.0228
     18 C           4.1551    2.4911    0.0000 C.3     1  UNL1        0.1371
     19 C           4.1551    4.0544    0.0000 C.3     1  UNL1        0.0209
     20 C           3.7786    3.2728    0.0000 C.3     1  UNL1        0.1063
     21 C           5.0009    2.2981    0.0000 C.3     1  UNL1        0.0953
     22 C           6.4305    2.4052    0.0000 C.3     1  UNL1        0.0236
     23 C           6.4305    4.1404    0.0000 C.3     1  UNL1        0.0661
     24 C           5.0787    5.1116    0.0000 C.3     1  UNL1       -0.0416
     25 C           4.2809    5.4526    0.0000 C.3     1  UNL1        0.0123
     26 C           3.7101    4.7992    0.0000 C.3     1  UNL1        0.0693
     27 C           3.1337    3.5427    0.0000 C.3     1  UNL1        0.0059
     28 C           7.6259    2.5594    0.0000 C.3     1  UNL1        0.0084
     29 C           7.1819    2.8390    0.0000 C.3     1  UNL1       -0.0404
     30 C           3.1337    5.0272    0.0000 C.3     1  UNL1        0.0662
     31 C           7.1819    3.7066    0.0000 C.3     1  UNL1       -0.0254
     32 C           6.4305    1.4052    0.0000 C.3     1  UNL1        0.0999
     33 C           8.4298    3.9060    0.0000 C.3     1  UNL1       -0.0035
     34 C           5.2077    0.5784    0.0000 C.3     1  UNL1        0.0369
     35 C           9.3468    3.5071    0.0000 C.3     1  UNL1       -0.0523
     36 C           7.2966    5.6404    0.0000 C.3     1  UNL1        0.0368
     37 C           2.2888    3.8093    0.0000 C.3     1  UNL1        0.0368
     38 C           2.3970    6.5948    0.0000 C.3     1  UNL1        0.0368
     39 C           7.2966   -0.0948    0.0000 C.2     1  UNL1        0.3410
     40 C           8.1626   -0.5948    0.0000 C.ar    1  UNL1        0.0801
     41 C           8.1626   -1.5948    0.0000 C.ar    1  UNL1        0.0474
     42 C           9.0286   -0.0948    0.0000 C.ar    1  UNL1       -0.0460
     43 C           9.0286   -2.0948    0.0000 C.ar    1  UNL1       -0.0397
     44 C           9.8946   -0.5948    0.0000 C.ar    1  UNL1       -0.0609
     45 C           9.8946   -1.5948    0.0000 C.ar    1  UNL1       -0.0600
     46 C           7.2966   -3.0948    0.0000 C.2     1  UNL1        0.2177
     47 C           6.4305   -3.5948    0.0000 C.3     1  UNL1        0.0343
     48 C           6.4305   -4.5948    0.0000 C.3     1  UNL1        0.0532
     49 C           5.5645   -5.0948    0.0000 C.2     1  UNL1        0.3073
     50 C           4.6985   -6.5948    0.0000 C.3     1  UNL1        0.0817
     51 H           5.7427    1.9914    0.0000 H       1  UNL1        0.0340
     52 H           6.8051    4.2080    0.0000 H       1  UNL1        0.0499
     53 H           5.7825    4.5816    0.0000 H       1  UNL1        0.0312
     54 H           3.3059    4.0163    0.0000 H       1  UNL1        0.0358
     55 H           5.2013    1.7114    0.0000 H       1  UNL1        0.0629
     56 H           5.8936    4.4504    0.0000 H       1  UNL1        0.0602
     57 H           5.2614    5.7040    0.0000 H       1  UNL1        0.0272
     58 H           5.6870    4.9918    0.0000 H       1  UNL1        0.0272
     59 H           4.3017    6.3023    0.0000 H       1  UNL1        0.0351
     60 H           3.4300    5.3523    0.0000 H       1  UNL1        0.0603
     61 H           2.9718    2.9442    0.0000 H       1  UNL1        0.0319
     62 H           2.5191    3.6244    0.0000 H       1  UNL1        0.0319
     63 H           8.2453    2.5860    0.0000 H       1  UNL1        0.0433
     64 H           7.6788    1.9417    0.0000 H       1  UNL1        0.0433
     65 H           7.7924    2.9466    0.0000 H       1  UNL1        0.0273
     66 H           7.3939    2.2564    0.0000 H       1  UNL1        0.0273
     67 H           3.2119    5.6423    0.0000 H       1  UNL1        0.0600
     68 H           7.3939    4.2892    0.0000 H       1  UNL1        0.0290
     69 H           7.7924    3.5989    0.0000 H       1  UNL1        0.0290
     70 H           6.2185    0.8226    0.0000 H       1  UNL1        0.0704
     71 H           5.8200    1.5129    0.0000 H       1  UNL1        0.0704
     72 H           3.7581    1.1322    0.0000 H       1  UNL1        0.2105
     73 H           2.4874    2.6921    0.0000 H       1  UNL1        0.2103
     74 H           7.9802    4.3329    0.0000 H       1  UNL1        0.0424
     75 H           8.7721    4.4230    0.0000 H       1  UNL1        0.0424
     76 H           5.7038    0.9503    0.0000 H       1  UNL1        0.0524
     77 H           5.5796    0.0823    0.0000 H       1  UNL1        0.0524
     78 H           4.7116    0.2065    0.0000 H       1  UNL1        0.0524
     79 H           9.5941    4.0756    0.0000 H       1  UNL1        0.0242
     80 H           9.9154    3.2598    0.0000 H       1  UNL1        0.0242
     81 H           9.0995    2.9386    0.0000 H       1  UNL1        0.0242
     82 H           6.9866    6.1773    0.0000 H       1  UNL1        0.0524
     83 H           7.8335    5.9504    0.0000 H       1  UNL1        0.0524
     84 H           7.6066    5.1034    0.0000 H       1  UNL1        0.0524
     85 H           2.8500    3.5459    0.0000 H       1  UNL1        0.0524
     86 H           2.0254    3.2480    0.0000 H       1  UNL1        0.0524
     87 H           1.7275    4.0727    0.0000 H       1  UNL1        0.0524
     88 H           1.7792    6.6470    0.0000 H       1  UNL1        0.0524
     89 H           2.4492    7.2126    0.0000 H       1  UNL1        0.0524
     90 H           3.0148    6.5426    0.0000 H       1  UNL1        0.0524
     91 H           9.0286    0.5252    0.0000 H       1  UNL1        0.0626
     92 H           9.0286   -2.7148    0.0000 H       1  UNL1        0.0636
     93 H          10.4316   -0.2848    0.0000 H       1  UNL1        0.0618
     94 H           6.7596   -1.7848    0.0000 H       1  UNL1        0.1548
     95 H          10.4316   -1.9048    0.0000 H       1  UNL1        0.0618
     96 H           5.8199   -3.7024    0.0000 H       1  UNL1        0.0364
     97 H           6.2185   -3.0122    0.0000 H       1  UNL1        0.0364
     98 H           7.0411   -4.4871    0.0000 H       1  UNL1        0.0382
     99 H           6.6426   -5.1774    0.0000 H       1  UNL1        0.0382
    100 H           5.0085   -7.1317    0.0000 H       1  UNL1        0.0661
    101 H           4.1615   -6.9048    0.0000 H       1  UNL1        0.0661
    102 H           4.3885   -6.0578    0.0000 H       1  UNL1        0.0661
@<TRIPOS>BOND
     1    18     1    1
     2     1    72    1
     3    20     2    1
     4     2    73    1
     5    21     3    1
     6     3    34    1
     7    23     4    1
     8     4    36    1
     9    26     5    1
    10     5    37    1
    11    30     6    1
    12     6    38    1
    13     7    32    1
    14     7    39    1
    15     8    39    2
    16     9    46    2
    17    10    49    1
    18    10    50    1
    19    11    49    2
    20    12    16    1
    21    12    28    1
    22    12    33    1
    23    13    41    1
    24    13    46   am
    25    13    94    1
    26    14    15    1
    27    14    16    1
    28    14    17    1
    29    14    23    1
    30    15    21    1
    31    15    22    1
    32    15    51    1
    33    16    18    1
    34    16    52    1
    35    17    19    1
    36    17    24    1
    37    17    53    1
    38    18    20    1
    39    18    21    1
    40    19    20    1
    41    19    26    1
    42    19    54    1
    43    20    27    1
    44    21    55    1
    45    22    28    1
    46    22    29    1
    47    22    32    1
    48    23    31    1
    49    23    56    1
    50    24    25    1
    51    24    57    1
    52    24    58    1
    53    25    26    1
    54    25    30    1
    55    25    59    1
    56    26    60    1
    57    27    30    1
    58    27    61    1
    59    27    62    1
    60    28    63    1
    61    28    64    1
    62    29    31    1
    63    29    65    1
    64    29    66    1
    65    30    67    1
    66    31    68    1
    67    31    69    1
    68    32    70    1
    69    32    71    1
    70    33    35    1
    71    33    74    1
    72    33    75    1
    73    34    76    1
    74    34    77    1
    75    34    78    1
    76    35    79    1
    77    35    80    1
    78    35    81    1
    79    36    82    1
    80    36    83    1
    81    36    84    1
    82    37    85    1
    83    37    86    1
    84    37    87    1
    85    38    88    1
    86    38    89    1
    87    38    90    1
    88    39    40    1
    89    40    41   ar
    90    40    42   ar
    91    41    43   ar
    92    42    44   ar
    93    42    91    1
    94    43    45   ar
    95    43    92    1
    96    44    45   ar
    97    44    93    1
    98    45    95    1
    99    46    47    1
   100    47    48    1
   101    47    96    1
   102    47    97    1
   103    48    49    1
   104    48    98    1
   105    48    99    1
   106    50   100    1
   107    50   101    1
   108    50   102    1
