@<TRIPOS>MOLECULE
IMPHY007875
 68 72 0 0 0
SMALL
GASTEIGER

@<TRIPOS>ATOM
      1 O           5.1350   -2.5176    0.0000 O.3     1  UNL1       -0.3609
      2 O          10.2617    2.6831    0.0000 O.3     1  UNL1       -0.4853
      3 O           2.5369   -2.0176    0.0000 O.3     1  UNL1       -0.3862
      4 O           6.0290   -1.0523    0.0000 O.3     1  UNL1       -0.4896
      5 O           2.5369   -4.0176    0.0000 O.3     1  UNL1       -0.3865
      6 O           4.2690   -5.0176    0.0000 O.3     1  UNL1       -0.3865
      7 O          10.8464    5.3252    0.0000 O.3     1  UNL1       -0.3855
      8 O           6.0010   -5.0176    0.0000 O.3     1  UNL1       -0.3924
      9 O           2.5369   -1.0176    0.0000 O.3     1  UNL1       -0.5062
     10 O           6.0174    2.0170    0.0000 O.2     1  UNL1       -0.2910
     11 O           8.6709   -0.4901    0.0000 O.3     1  UNL1       -0.5064
     12 O           4.2690    1.9824    0.0000 O.3     1  UNL1       -0.5058
     13 C           4.2690   -2.0176    0.0000 C.3     1  UNL1        0.1193
     14 C           3.4030   -2.5176    0.0000 C.3     1  UNL1        0.1139
     15 C           3.4030   -3.5176    0.0000 C.3     1  UNL1        0.1121
     16 C           4.2690   -4.0176    0.0000 C.3     1  UNL1        0.1117
     17 C           5.1350   -3.5176    0.0000 C.3     1  UNL1        0.1108
     18 C           4.2690   -1.0176    0.0000 C.ar    1  UNL1        0.0676
     19 C           9.8531    3.5893    0.0000 C.3     1  UNL1        0.1322
     20 C           6.9350    0.5032    0.0000 C.3     1  UNL1        0.0847
     21 C           5.1350   -0.5176    0.0000 C.ar    1  UNL1        0.1437
     22 C           8.8648    3.4825    0.0000 C.3     1  UNL1        0.0157
     23 C          10.3498    4.4573    0.0000 C.3     1  UNL1        0.0974
     24 C           8.6594    2.5099    0.0000 C.ar    1  UNL1       -0.0016
     25 C           6.0010   -4.0176    0.0000 C.3     1  UNL1        0.0729
     26 C           7.7991    1.0065    0.0000 C.ar    1  UNL1        0.0083
     27 C           5.1350    0.4824    0.0000 C.ar    1  UNL1        0.1016
     28 C           6.9350   -0.5384    0.0000 C.3     1  UNL1        0.1036
     29 C           9.5273    2.0132    0.0000 C.ar    1  UNL1        0.1278
     30 C           6.0290    1.0170    0.0000 C.2     1  UNL1        0.1809
     31 C           3.4030   -0.5176    0.0000 C.ar    1  UNL1        0.1296
     32 C           7.7953    2.0065    0.0000 C.ar    1  UNL1       -0.0475
     33 C           8.6671    0.5099    0.0000 C.ar    1  UNL1        0.1243
     34 C           4.2690    0.9824    0.0000 C.ar    1  UNL1        0.1344
     35 C           9.5312    1.0132    0.0000 C.ar    1  UNL1        0.0221
     36 C          11.2177    3.9606    0.0000 C.3     1  UNL1       -0.0328
     37 C           9.4818    4.9539    0.0000 C.3     1  UNL1       -0.0328
     38 C           3.4030    0.4824    0.0000 C.ar    1  UNL1        0.0226
     39 H           5.0051   -1.5926    0.0000 H       1  UNL1        0.0676
     40 H           3.4030   -1.8976    0.0000 H       1  UNL1        0.0649
     41 H           3.4030   -4.1376    0.0000 H       1  UNL1        0.0647
     42 H           4.8059   -4.3276    0.0000 H       1  UNL1        0.0647
     43 H           5.6720   -3.2076    0.0000 H       1  UNL1        0.0646
     44 H          10.7021    3.5485    0.0000 H       1  UNL1        0.0765
     45 H           7.6720    0.0796    0.0000 H       1  UNL1        0.0464
     46 H           8.8633    4.1025    0.0000 H       1  UNL1        0.0351
     47 H           8.2481    3.5462    0.0000 H       1  UNL1        0.0351
     48 H           6.6116   -4.1253    0.0000 H       1  UNL1        0.0584
     49 H           6.2131   -3.4350    0.0000 H       1  UNL1        0.0584
     50 H           7.1441   -1.1221    0.0000 H       1  UNL1        0.0707
     51 H           7.5459   -0.4323    0.0000 H       1  UNL1        0.0707
     52 H           7.2571    2.3144    0.0000 H       1  UNL1        0.0625
     53 H           2.0000   -2.3276    0.0000 H       1  UNL1        0.2100
     54 H           2.5369   -4.6376    0.0000 H       1  UNL1        0.2100
     55 H           3.7320   -5.3276    0.0000 H       1  UNL1        0.2100
     56 H          10.0693    0.7053    0.0000 H       1  UNL1        0.0691
     57 H           9.7898    5.4921    0.0000 H       1  UNL1        0.0258
     58 H           8.9437    5.2619    0.0000 H       1  UNL1        0.0258
     59 H           9.1739    4.4158    0.0000 H       1  UNL1        0.0258
     60 H          10.9098    3.4225    0.0000 H       1  UNL1        0.0258
     61 H          11.7559    3.6527    0.0000 H       1  UNL1        0.0258
     62 H          11.5257    4.4988    0.0000 H       1  UNL1        0.0258
     63 H           2.8660    0.7924    0.0000 H       1  UNL1        0.0691
     64 H          11.4664    5.3276    0.0000 H       1  UNL1        0.2103
     65 H           6.5380   -5.3276    0.0000 H       1  UNL1        0.2095
     66 H           2.0000   -0.7076    0.0000 H       1  UNL1        0.2922
     67 H           9.2090   -0.7980    0.0000 H       1  UNL1        0.2921
     68 H           3.7320    2.2924    0.0000 H       1  UNL1        0.2922
@<TRIPOS>BOND
     1     1    13    1
     2     1    17    1
     3     2    19    1
     4     2    29    1
     5    14     3    1
     6     3    53    1
     7     4    21    1
     8     4    28    1
     9    15     5    1
    10     5    54    1
    11    16     6    1
    12     6    55    1
    13     7    23    1
    14     7    64    1
    15     8    25    1
    16     8    65    1
    17     9    31    1
    18     9    66    1
    19    10    30    2
    20    11    33    1
    21    11    67    1
    22    12    34    1
    23    12    68    1
    24    13    14    1
    25    13    18    1
    26    13    39    1
    27    14    15    1
    28    14    40    1
    29    15    16    1
    30    15    41    1
    31    16    17    1
    32    16    42    1
    33    17    25    1
    34    17    43    1
    35    18    21   ar
    36    18    31   ar
    37    19    22    1
    38    19    23    1
    39    19    44    1
    40    20    26    1
    41    20    28    1
    42    20    30    1
    43    20    45    1
    44    21    27   ar
    45    22    24    1
    46    22    46    1
    47    22    47    1
    48    23    36    1
    49    23    37    1
    50    24    29   ar
    51    24    32   ar
    52    25    48    1
    53    25    49    1
    54    26    32   ar
    55    26    33   ar
    56    27    30    1
    57    27    34   ar
    58    28    50    1
    59    28    51    1
    60    29    35   ar
    61    31    38   ar
    62    32    52    1
    63    33    35   ar
    64    34    38   ar
    65    35    56    1
    66    36    60    1
    67    36    61    1
    68    36    62    1
    69    37    57    1
    70    37    58    1
    71    37    59    1
    72    38    63    1
