@<TRIPOS>MOLECULE
IMPHY004498
 51 52 0 0 0
SMALL
GASTEIGER

@<TRIPOS>ATOM
      1 O           2.5369    0.0000    0.0000 O.3     1  UNL1       -0.5031
      2 O           2.5369   -2.0000    0.0000 O.3     1  UNL1       -0.4914
      3 O          10.3312   -0.5000    0.0000 O.3     1  UNL1       -0.4950
      4 O           8.5991    2.5000    0.0000 O.3     1  UNL1       -0.5066
      5 C           6.0010    0.0000    0.0000 C.3     1  UNL1       -0.0233
      6 C           5.1350   -0.5000    0.0000 C.ar    1  UNL1       -0.0399
      7 C           4.2690    0.0000    0.0000 C.ar    1  UNL1        0.0046
      8 C           6.8671   -0.5000    0.0000 C.3     1  UNL1       -0.0235
      9 C           4.2690    1.0000    0.0000 C.3     1  UNL1       -0.0054
     10 C           7.7331    0.0000    0.0000 C.ar    1  UNL1       -0.0402
     11 C           5.1350   -1.5000    0.0000 C.ar    1  UNL1       -0.0546
     12 C           3.4030   -0.5000    0.0000 C.ar    1  UNL1        0.1622
     13 C           3.4030   -1.5000    0.0000 C.ar    1  UNL1        0.1616
     14 C           4.2690   -2.0000    0.0000 C.ar    1  UNL1       -0.0160
     15 C           5.1350    1.5000    0.0000 C.2     1  UNL1       -0.0809
     16 C           8.5991   -0.5000    0.0000 C.ar    1  UNL1       -0.0165
     17 C           7.7331    1.0000    0.0000 C.ar    1  UNL1       -0.0168
     18 C           5.1350    2.5000    0.0000 C.2     1  UNL1       -0.0793
     19 C           9.4651    0.0000    0.0000 C.ar    1  UNL1        0.1238
     20 C           8.5991    1.5000    0.0000 C.ar    1  UNL1        0.1206
     21 C           9.4651    1.0000    0.0000 C.ar    1  UNL1        0.0215
     22 C           4.2690    3.0000    0.0000 C.3     1  UNL1       -0.0440
     23 C           6.0010    3.0000    0.0000 C.3     1  UNL1       -0.0440
     24 C           2.5369   -3.0000    0.0000 C.3     1  UNL1        0.0790
     25 C          11.1972    0.0000    0.0000 C.3     1  UNL1        0.0788
     26 H           6.3996    0.4749    0.0000 H       1  UNL1        0.0316
     27 H           5.6025    0.4749    0.0000 H       1  UNL1        0.0316
     28 H           6.4685   -0.9749    0.0000 H       1  UNL1        0.0316
     29 H           7.2656   -0.9749    0.0000 H       1  UNL1        0.0316
     30 H           4.0569    1.5826    0.0000 H       1  UNL1        0.0357
     31 H           3.6584    0.8923    0.0000 H       1  UNL1        0.0357
     32 H           5.6720   -1.8100    0.0000 H       1  UNL1        0.0622
     33 H           4.2690   -2.6200    0.0000 H       1  UNL1        0.0655
     34 H           5.6720    1.1900    0.0000 H       1  UNL1        0.0575
     35 H           8.5991   -1.1200    0.0000 H       1  UNL1        0.0657
     36 H           7.1962    1.3100    0.0000 H       1  UNL1        0.0657
     37 H          10.0021    1.3100    0.0000 H       1  UNL1        0.0691
     38 H           2.0000   -0.3100    0.0000 H       1  UNL1        0.2923
     39 H           6.3110    2.4631    0.0000 H       1  UNL1        0.0274
     40 H           4.5790    3.5369    0.0000 H       1  UNL1        0.0274
     41 H           3.7320    3.3100    0.0000 H       1  UNL1        0.0274
     42 H           3.9590    2.4631    0.0000 H       1  UNL1        0.0274
     43 H           6.5380    3.3100    0.0000 H       1  UNL1        0.0274
     44 H           5.6910    3.5369    0.0000 H       1  UNL1        0.0274
     45 H           1.9169   -3.0000    0.0000 H       1  UNL1        0.0660
     46 H           2.5369   -3.6200    0.0000 H       1  UNL1        0.0660
     47 H           3.1569   -3.0000    0.0000 H       1  UNL1        0.0660
     48 H           9.1360    2.8100    0.0000 H       1  UNL1        0.2921
     49 H          11.5072   -0.5369    0.0000 H       1  UNL1        0.0660
     50 H          11.7341    0.3100    0.0000 H       1  UNL1        0.0660
     51 H          10.8872    0.5369    0.0000 H       1  UNL1        0.0660
@<TRIPOS>BOND
     1     1    12    1
     2     1    38    1
     3     2    13    1
     4     2    24    1
     5     3    19    1
     6     3    25    1
     7     4    20    1
     8     4    48    1
     9     5     6    1
    10     5     8    1
    11     5    26    1
    12     5    27    1
    13     6     7   ar
    14     6    11   ar
    15     7     9    1
    16     7    12   ar
    17     8    10    1
    18     8    28    1
    19     8    29    1
    20     9    15    1
    21     9    30    1
    22     9    31    1
    23    10    16   ar
    24    10    17   ar
    25    11    14   ar
    26    11    32    1
    27    12    13   ar
    28    13    14   ar
    29    14    33    1
    30    15    18    2
    31    15    34    1
    32    16    19   ar
    33    16    35    1
    34    17    20   ar
    35    17    36    1
    36    18    22    1
    37    18    23    1
    38    19    21   ar
    39    20    21   ar
    40    21    37    1
    41    22    40    1
    42    22    41    1
    43    22    42    1
    44    23    39    1
    45    23    43    1
    46    23    44    1
    47    24    45    1
    48    24    46    1
    49    24    47    1
    50    25    49    1
    51    25    50    1
    52    25    51    1
