@<TRIPOS>MOLECULE
IMPHY012384
 35 38 0 0 0
SMALL
GASTEIGER

@<TRIPOS>ATOM
      1 O           6.8962    2.2003    0.0000 O.3     1  UNL1       -0.3618
      2 O           5.5301   -0.1657    0.0000 O.3     1  UNL1       -0.4879
      3 O           7.3424   -2.9704    0.0000 O.2     1  UNL1       -0.4627
      4 O           3.7702   -3.2003    0.0000 O.2     1  UNL1       -0.4219
      5 O           2.0000   -3.1898    0.0000 O.2     1  UNL1       -0.2452
      6 C           5.8961    2.2003    0.0000 C.3     1  UNL1        0.0938
      7 C           6.3961    1.3343    0.0000 C.3     1  UNL1        0.1216
      8 C           6.3961    0.3343    0.0000 C.3     1  UNL1        0.1184
      9 C           5.8961    3.2003    0.0000 C.3     1  UNL1       -0.0335
     10 C           5.0301    1.7003    0.0000 C.3     1  UNL1       -0.0335
     11 C           5.5301   -1.1657    0.0000 C.ar    1  UNL1        0.1420
     12 C           6.3961   -1.6657    0.0000 C.ar    1  UNL1        0.0625
     13 C           4.6641   -1.6657    0.0000 C.ar    1  UNL1        0.0600
     14 C           6.3961   -2.6657    0.0000 C.ar    1  UNL1        0.1418
     15 C           4.6641   -2.6657    0.0000 C.ar    1  UNL1        0.1461
     16 C           5.5301   -3.1657    0.0000 C.ar    1  UNL1        0.0245
     17 C           7.3424   -1.3610    0.0000 C.ar    1  UNL1       -0.0126
     18 C           3.7702   -1.1310    0.0000 C.ar    1  UNL1       -0.0408
     19 C           7.9260   -2.1657    0.0000 C.ar    1  UNL1        0.0933
     20 C           2.8641   -1.6449    0.0000 C.ar    1  UNL1        0.0237
     21 C           2.8641   -2.6865    0.0000 C.ar    1  UNL1        0.3372
     22 H           6.9950    1.1738    0.0000 H       1  UNL1        0.0659
     23 H           6.6082   -0.2483    0.0000 H       1  UNL1        0.0724
     24 H           7.0067    0.4420    0.0000 H       1  UNL1        0.0724
     25 H           6.5162    3.2003    0.0000 H       1  UNL1        0.0258
     26 H           5.8961    3.8203    0.0000 H       1  UNL1        0.0258
     27 H           5.2762    3.2003    0.0000 H       1  UNL1        0.0258
     28 H           4.7201    2.2373    0.0000 H       1  UNL1        0.0258
     29 H           4.4932    1.3903    0.0000 H       1  UNL1        0.0258
     30 H           5.3401    1.1634    0.0000 H       1  UNL1        0.0258
     31 H           5.5301   -3.7857    0.0000 H       1  UNL1        0.0692
     32 H           7.5350   -0.7716    0.0000 H       1  UNL1        0.0656
     33 H           3.7773   -0.5111    0.0000 H       1  UNL1        0.0628
     34 H           8.5460   -2.1657    0.0000 H       1  UNL1        0.1030
     35 H           2.3284   -1.3328    0.0000 H       1  UNL1        0.0689
@<TRIPOS>BOND
     1     1     6    1
     2     1     7    1
     3     2     8    1
     4     2    11    1
     5     3    14   ar
     6     3    19   ar
     7     4    15   ar
     8     4    21   ar
     9     5    21    2
    10     6     7    1
    11     6     9    1
    12     6    10    1
    13     7     8    1
    14     7    22    1
    15     8    23    1
    16     8    24    1
    17     9    25    1
    18     9    26    1
    19     9    27    1
    20    10    28    1
    21    10    29    1
    22    10    30    1
    23    11    12   ar
    24    11    13   ar
    25    12    14   ar
    26    12    17   ar
    27    13    15   ar
    28    13    18   ar
    29    14    16   ar
    30    15    16   ar
    31    16    31    1
    32    17    19   ar
    33    17    32    1
    34    18    20   ar
    35    18    33    1
    36    19    34    1
    37    20    21   ar
    38    20    35    1
