@<TRIPOS>MOLECULE
IMPHY002028
 24 25 0 0 0
SMALL
GASTEIGER

@<TRIPOS>ATOM
      1 O           5.9823    1.7859    0.0000 O.3     1  UNL1       -0.3746
      2 O           4.2786   -2.0110    0.0000 O.3     1  UNL1       -0.3877
      3 O           2.4750   -0.7944    0.0000 O.3     1  UNL1       -0.3890
      4 N           4.9869    1.8026    0.0000 N.3     1  UNL1       -0.2838
      5 C           5.7235    0.8200    0.0000 C.3     1  UNL1        0.1202
      6 C           5.4647   -0.1459    0.0000 C.3     1  UNL1        0.0386
      7 C           7.1225    0.3112    0.0000 C.3     1  UNL1       -0.0087
      8 C           6.8636   -0.6548    0.0000 C.3     1  UNL1       -0.0311
      9 C           4.2437   -1.0116    0.0000 C.3     1  UNL1        0.0965
     10 C           3.6903    0.5089    0.0000 C.3     1  UNL1        0.0183
     11 C           3.4146   -0.4524    0.0000 C.3     1  UNL1        0.0864
     12 H           5.2447   -0.9670    0.0000 H       1  UNL1        0.0487
     13 H           7.7164    0.1334    0.0000 H       1  UNL1        0.0307
     14 H           7.3174    0.8997    0.0000 H       1  UNL1        0.0307
     15 H           6.6687   -1.2433    0.0000 H       1  UNL1        0.0282
     16 H           7.4576   -0.8325    0.0000 H       1  UNL1        0.0282
     17 H           3.7014   -1.3122    0.0000 H       1  UNL1        0.0635
     18 H           3.6852    1.1288    0.0000 H       1  UNL1        0.0332
     19 H           3.0760    0.5926    0.0000 H       1  UNL1        0.0332
     20 H           2.9612   -0.0296    0.0000 H       1  UNL1        0.0621
     21 H           4.6769    2.3395    0.0000 H       1  UNL1        0.1249
     22 H           6.5812    1.9464    0.0000 H       1  UNL1        0.2117
     23 H           3.7528   -2.3395    0.0000 H       1  UNL1        0.2100
     24 H           2.0000   -0.3959    0.0000 H       1  UNL1        0.2099
@<TRIPOS>BOND
     1     5     1    1
     2     1    22    1
     3     9     2    1
     4     2    23    1
     5    11     3    1
     6     3    24    1
     7     4     5    1
     8     4     6    1
     9     4    21    1
    10     5     7    1
    11     5    10    1
    12     6     8    1
    13     6     9    1
    14     6    12    1
    15     7     8    1
    16     7    13    1
    17     7    14    1
    18     8    15    1
    19     8    16    1
    20     9    11    1
    21     9    17    1
    22    10    11    1
    23    10    18    1
    24    10    19    1
    25    11    20    1
