@<TRIPOS>MOLECULE
IMPHY012380
 42 46 0 0 0
SMALL
GASTEIGER

@<TRIPOS>ATOM
      1 O           7.3092    1.2707    0.0000 O.3     1  UNL1       -0.4520
      2 O           7.3092    2.8802    0.0000 O.3     1  UNL1       -0.4526
      3 O           3.7386   -2.0754    0.0000 O.3     1  UNL1       -0.4948
      4 N           2.8816    1.5968    0.0000 N.3     1  UNL1       -0.2978
      5 C           3.7209    1.0686    0.0000 C.3     1  UNL1        0.0404
      6 C           4.6309    1.5754    0.0000 C.ar    1  UNL1       -0.0153
      7 C           3.7129    0.0270    0.0000 C.3     1  UNL1       -0.0038
      8 C           4.6309    2.5754    0.0000 C.ar    1  UNL1       -0.0372
      9 C           5.4969    1.0754    0.0000 C.ar    1  UNL1        0.0329
     10 C           2.9072    2.5882    0.0000 C.3     1  UNL1        0.0032
     11 C           3.7727    3.0724    0.0000 C.3     1  UNL1       -0.0144
     12 C           4.6149   -0.4938    0.0000 C.ar    1  UNL1        0.0039
     13 C           5.5130    0.0339    0.0000 C.ar    1  UNL1       -0.0072
     14 C           6.3629    1.5754    0.0000 C.ar    1  UNL1        0.1742
     15 C           5.4969    3.0754    0.0000 C.ar    1  UNL1       -0.0126
     16 C           6.3629    2.5754    0.0000 C.ar    1  UNL1        0.1671
     17 C           2.0000    1.1248    0.0000 C.3     1  UNL1       -0.0122
     18 C           4.6066   -1.5788    0.0000 C.ar    1  UNL1        0.1239
     19 C           6.4649   -0.4867    0.0000 C.ar    1  UNL1       -0.0534
     20 C           5.5462   -2.1213    0.0000 C.ar    1  UNL1       -0.0196
     21 C           7.8928    2.0754    0.0000 C.3     1  UNL1        0.2333
     22 C           6.4816   -1.5716    0.0000 C.ar    1  UNL1       -0.0577
     23 C           3.7348   -3.0754    0.0000 C.3     1  UNL1        0.0788
     24 H           2.9752    0.6606    0.0000 H       1  UNL1        0.0516
     25 H           3.1028    0.1378    0.0000 H       1  UNL1        0.0333
     26 H           3.4993   -0.5551    0.0000 H       1  UNL1        0.0333
     27 H           2.7054    3.1745    0.0000 H       1  UNL1        0.0430
     28 H           2.2944    2.4938    0.0000 H       1  UNL1        0.0430
     29 H           4.1737    3.5452    0.0000 H       1  UNL1        0.0326
     30 H           3.3786    3.5511    0.0000 H       1  UNL1        0.0326
     31 H           5.4969    3.6954    0.0000 H       1  UNL1        0.0658
     32 H           1.7073    1.6713    0.0000 H       1  UNL1        0.0391
     33 H           1.4534    0.8321    0.0000 H       1  UNL1        0.0391
     34 H           2.2927    0.5782    0.0000 H       1  UNL1        0.0391
     35 H           6.9958   -0.1664    0.0000 H       1  UNL1        0.0624
     36 H           5.5486   -2.7413    0.0000 H       1  UNL1        0.0654
     37 H           8.3536    1.6607    0.0000 H       1  UNL1        0.1166
     38 H           8.3536    2.4902    0.0000 H       1  UNL1        0.1166
     39 H           7.0221   -1.8753    0.0000 H       1  UNL1        0.0619
     40 H           3.1148   -3.0730    0.0000 H       1  UNL1        0.0660
     41 H           3.7324   -3.6954    0.0000 H       1  UNL1        0.0660
     42 H           4.3548   -3.0778    0.0000 H       1  UNL1        0.0660
@<TRIPOS>BOND
     1     1    14    1
     2     1    21    1
     3     2    16    1
     4     2    21    1
     5     3    18    1
     6     3    23    1
     7     4     5    1
     8     4    10    1
     9     4    17    1
    10     5     6    1
    11     5     7    1
    12     5    24    1
    13     6     8   ar
    14     6     9   ar
    15     7    12    1
    16     7    25    1
    17     7    26    1
    18     8    11    1
    19     8    15   ar
    20     9    13    1
    21     9    14   ar
    22    10    11    1
    23    10    27    1
    24    10    28    1
    25    11    29    1
    26    11    30    1
    27    12    13   ar
    28    12    18   ar
    29    13    19   ar
    30    14    16   ar
    31    15    16   ar
    32    15    31    1
    33    17    32    1
    34    17    33    1
    35    17    34    1
    36    18    20   ar
    37    19    22   ar
    38    19    35    1
    39    20    22   ar
    40    20    36    1
    41    21    37    1
    42    21    38    1
    43    22    39    1
    44    23    40    1
    45    23    41    1
    46    23    42    1
