@<TRIPOS>MOLECULE
IMPHY001774
 79 83 0 0 0
SMALL
GASTEIGER

@<TRIPOS>ATOM
      1 O           2.6200   -1.6333    0.0000 O.3     1  UNL1       -0.4802
      2 O          12.2545    2.8304    0.0000 O.2     1  UNL1       -0.2968
      3 O           2.6400    0.0987    0.0000 O.2     1  UNL1       -0.2504
      4 C           6.9146   -0.3139    0.0000 C.3     1  UNL1       -0.0194
      5 C           7.7806   -0.8139    0.0000 C.3     1  UNL1       -0.0051
      6 C           6.0046   -0.8208    0.0000 C.3     1  UNL1       -0.0284
      7 C           5.9966   -1.8624    0.0000 C.3     1  UNL1       -0.0286
      8 C           7.7967   -1.8554    0.0000 C.3     1  UNL1       -0.0429
      9 C           8.6466   -0.3139    0.0000 C.2     1  UNL1       -0.0633
     10 C           6.9146    0.6861    0.0000 C.3     1  UNL1       -0.0428
     11 C           6.8986   -2.3832    0.0000 C.3     1  UNL1       -0.0465
     12 C           5.0778   -0.2567    0.0000 C.3     1  UNL1       -0.0336
     13 C           8.6466    0.6861    0.0000 C.2     1  UNL1       -0.0635
     14 C           9.5406    1.2207    0.0000 C.3     1  UNL1       -0.0067
     15 C           5.0611   -2.4121    0.0000 C.3     1  UNL1       -0.0464
     16 C           7.7806    1.1861    0.0000 C.3     1  UNL1       -0.0304
     17 C          10.4467    0.7069    0.0000 C.3     1  UNL1       -0.0198
     18 C           4.1299   -0.7846    0.0000 C.3     1  UNL1        0.0651
     19 C           6.0486    0.1861    0.0000 C.3     1  UNL1       -0.0585
     20 C           8.6466   -1.3139    0.0000 C.3     1  UNL1       -0.0553
     21 C           9.5406   -0.8486    0.0000 C.3     1  UNL1       -0.0306
     22 C           4.1215   -1.8696    0.0000 C.3     1  UNL1       -0.0370
     23 C           5.9889   -2.8624    0.0000 C.3     1  UNL1       -0.0593
     24 C          10.4467   -0.3348    0.0000 C.3     1  UNL1       -0.0448
     25 C          11.3904    1.2421    0.0000 C.3     1  UNL1        0.0270
     26 C           9.5155    2.3054    0.0000 C.3     1  UNL1       -0.0369
     27 C           8.6707    1.7140    0.0000 C.3     1  UNL1       -0.0555
     28 C          10.4467    2.8624    0.0000 C.3     1  UNL1        0.0072
     29 C           3.6399    0.0871    0.0000 C.3     1  UNL1       -0.0494
     30 C          11.3904    2.3271    0.0000 C.2     1  UNL1        0.1392
     31 C           3.1299   -0.7731    0.0000 C.2     1  UNL1        0.3107
     32 C          12.3904    1.2383    0.0000 C.3     1  UNL1       -0.0528
     33 C          11.8871    0.3742    0.0000 C.3     1  UNL1       -0.0528
     34 H           6.7358   -1.2543    0.0000 H       1  UNL1        0.0312
     35 H           8.0147   -2.4358    0.0000 H       1  UNL1        0.0274
     36 H           8.4058   -1.7399    0.0000 H       1  UNL1        0.0274
     37 H           6.7025    1.2687    0.0000 H       1  UNL1        0.0274
     38 H           6.3040    0.5784    0.0000 H       1  UNL1        0.0274
     39 H           6.5013   -2.8592    0.0000 H       1  UNL1        0.0271
     40 H           7.2996   -2.8561    0.0000 H       1  UNL1        0.0271
     41 H           5.4860    0.2100    0.0000 H       1  UNL1        0.0279
     42 H           4.6878    0.2253    0.0000 H       1  UNL1        0.0279
     43 H           4.6638   -2.8881    0.0000 H       1  UNL1        0.0271
     44 H           5.4621   -2.8850    0.0000 H       1  UNL1        0.0271
     45 H           8.1792    1.6610    0.0000 H       1  UNL1        0.0310
     46 H           7.3821    1.6610    0.0000 H       1  UNL1        0.0310
     47 H          11.1811    0.2790    0.0000 H       1  UNL1        0.0318
     48 H           6.3586    0.7230    0.0000 H       1  UNL1        0.0235
     49 H           5.5116    0.4961    0.0000 H       1  UNL1        0.0235
     50 H           5.7386   -0.3509    0.0000 H       1  UNL1        0.0235
     51 H           8.3366   -1.8509    0.0000 H       1  UNL1        0.0238
     52 H           9.1836   -1.6239    0.0000 H       1  UNL1        0.0238
     53 H           8.9566   -0.7770    0.0000 H       1  UNL1        0.0238
     54 H           9.1360   -1.3184    0.0000 H       1  UNL1        0.0310
     55 H           9.9342   -1.3276    0.0000 H       1  UNL1        0.0310
     56 H           3.5115   -1.7588    0.0000 H       1  UNL1        0.0276
     57 H           3.9080   -2.4517    0.0000 H       1  UNL1        0.0276
     58 H           5.3689   -2.8576    0.0000 H       1  UNL1        0.0235
     59 H           5.9841   -3.4823    0.0000 H       1  UNL1        0.0235
     60 H           6.6088   -2.8671    0.0000 H       1  UNL1        0.0235
     61 H          10.6557   -0.9184    0.0000 H       1  UNL1        0.0271
     62 H          11.0575   -0.2287    0.0000 H       1  UNL1        0.0271
     63 H           9.2930    2.8841    0.0000 H       1  UNL1        0.0278
     64 H           8.9073    2.1852    0.0000 H       1  UNL1        0.0278
     65 H           8.9766    2.2534    0.0000 H       1  UNL1        0.0238
     66 H           8.1314    2.0199    0.0000 H       1  UNL1        0.0238
     67 H           8.3649    1.1747    0.0000 H       1  UNL1        0.0238
     68 H          10.8403    3.3414    0.0000 H       1  UNL1        0.0342
     69 H          10.0421    3.3321    0.0000 H       1  UNL1        0.0342
     70 H           4.1804    0.3909    0.0000 H       1  UNL1        0.0240
     71 H           3.3362    0.6276    0.0000 H       1  UNL1        0.0240
     72 H           3.0994   -0.2167    0.0000 H       1  UNL1        0.0240
     73 H          12.3880    0.6183    0.0000 H       1  UNL1        0.0239
     74 H          13.0104    1.2359    0.0000 H       1  UNL1        0.0239
     75 H          12.3928    1.8583    0.0000 H       1  UNL1        0.0239
     76 H          11.3490    0.0662    0.0000 H       1  UNL1        0.0239
     77 H          12.1950   -0.1640    0.0000 H       1  UNL1        0.0239
     78 H          12.4252    0.6821    0.0000 H       1  UNL1        0.0239
     79 H           2.0000   -1.6261    0.0000 H       1  UNL1        0.2951
@<TRIPOS>BOND
     1     1    31    1
     2     1    79    1
     3     2    30    2
     4     3    31    2
     5     4     5    1
     6     4     6    1
     7     4    10    1
     8     4    19    1
     9     5     8    1
    10     5     9    1
    11     5    20    1
    12     6     7    1
    13     6    12    1
    14     6    34    1
    15     7    11    1
    16     7    15    1
    17     7    23    1
    18     8    11    1
    19     8    35    1
    20     8    36    1
    21     9    13    2
    22     9    21    1
    23    10    16    1
    24    10    37    1
    25    10    38    1
    26    11    39    1
    27    11    40    1
    28    12    18    1
    29    12    41    1
    30    12    42    1
    31    13    14    1
    32    13    16    1
    33    14    17    1
    34    14    26    1
    35    14    27    1
    36    15    22    1
    37    15    43    1
    38    15    44    1
    39    16    45    1
    40    16    46    1
    41    17    24    1
    42    17    25    1
    43    17    47    1
    44    18    22    1
    45    18    29    1
    46    18    31    1
    47    19    48    1
    48    19    49    1
    49    19    50    1
    50    20    51    1
    51    20    52    1
    52    20    53    1
    53    21    24    1
    54    21    54    1
    55    21    55    1
    56    22    56    1
    57    22    57    1
    58    23    58    1
    59    23    59    1
    60    23    60    1
    61    24    61    1
    62    24    62    1
    63    25    30    1
    64    25    32    1
    65    25    33    1
    66    26    28    1
    67    26    63    1
    68    26    64    1
    69    27    65    1
    70    27    66    1
    71    27    67    1
    72    28    30    1
    73    28    68    1
    74    28    69    1
    75    29    70    1
    76    29    71    1
    77    29    72    1
    78    32    73    1
    79    32    74    1
    80    32    75    1
    81    33    76    1
    82    33    77    1
    83    33    78    1
