@<TRIPOS>MOLECULE
IMPHY015327
 15 15 0 0 0
SMALL
GASTEIGER

@<TRIPOS>ATOM
      1 O           5.4641    2.0000    0.0000 O.2     1  UNL1       -0.2957
      2 N           2.0000   -2.0000    0.0000 N.1     1  UNL1       -0.1909
      3 C           4.5981    0.5000    0.0000 C.ar    1  UNL1        0.0154
      4 C           3.7320   -0.0000    0.0000 C.ar    1  UNL1       -0.0341
      5 C           3.7320   -1.0000    0.0000 C.ar    1  UNL1        0.0524
      6 C           5.4641   -0.0000    0.0000 C.ar    1  UNL1       -0.0515
      7 C           4.5981   -1.5000    0.0000 C.ar    1  UNL1       -0.0443
      8 C           5.4641   -1.0000    0.0000 C.ar    1  UNL1       -0.0599
      9 C           4.5981    1.5000    0.0000 C.2     1  UNL1        0.1502
     10 C           2.8660   -1.5000    0.0000 C.1     1  UNL1        0.0992
     11 H           3.1951    0.3100    0.0000 H       1  UNL1        0.0637
     12 H           6.0010    0.3100    0.0000 H       1  UNL1        0.0624
     13 H           4.5981   -2.1200    0.0000 H       1  UNL1        0.0630
     14 H           6.0010   -1.3100    0.0000 H       1  UNL1        0.0618
     15 H           4.0611    1.8100    0.0000 H       1  UNL1        0.1081
@<TRIPOS>BOND
     1     1     9    2
     2     2    10    3
     3     3     4   ar
     4     3     6   ar
     5     3     9    1
     6     4     5   ar
     7     4    11    1
     8     5     7   ar
     9     5    10    1
    10     6     8   ar
    11     6    12    1
    12     7     8   ar
    13     7    13    1
    14     8    14    1
    15     9    15    1
