@<TRIPOS>MOLECULE
IMPHY008482
 54 57 0 0 0
SMALL
GASTEIGER

@<TRIPOS>ATOM
      1 O           5.4641   -1.0000    0.0000 O.3     1  UNL1       -0.3609
      2 O           2.8660   -0.5000    0.0000 O.3     1  UNL1       -0.3862
      3 O           2.8660   -2.5000    0.0000 O.3     1  UNL1       -0.3865
      4 O           4.5981   -3.5000    0.0000 O.3     1  UNL1       -0.3865
      5 O           6.3580    0.4653    0.0000 O.2     1  UNL1       -0.4540
      6 O           6.3301   -3.5000    0.0000 O.3     1  UNL1       -0.3924
      7 O           2.8660    0.5000    0.0000 O.3     1  UNL1       -0.4945
      8 O           4.5981    3.5000    0.0000 O.3     1  UNL1       -0.5058
      9 O           6.3465    3.5346    0.0000 O.2     1  UNL1       -0.2869
     10 O          10.7205   -1.0341    0.0000 O.3     1  UNL1       -0.5068
     11 C           3.7320   -1.0000    0.0000 C.3     1  UNL1        0.1139
     12 C           3.7320   -2.0000    0.0000 C.3     1  UNL1        0.1121
     13 C           4.5981   -0.5000    0.0000 C.3     1  UNL1        0.1193
     14 C           4.5981   -2.5000    0.0000 C.3     1  UNL1        0.1117
     15 C           5.4641   -2.0000    0.0000 C.3     1  UNL1        0.1108
     16 C           4.5981    0.5000    0.0000 C.ar    1  UNL1        0.0684
     17 C           6.3301   -2.5000    0.0000 C.3     1  UNL1        0.0729
     18 C           5.4641    1.0000    0.0000 C.ar    1  UNL1        0.1520
     19 C           3.7320    1.0000    0.0000 C.ar    1  UNL1        0.1328
     20 C           5.4641    2.0000    0.0000 C.ar    1  UNL1        0.1058
     21 C           3.7320    2.0000    0.0000 C.ar    1  UNL1        0.0228
     22 C           4.5981    2.5000    0.0000 C.ar    1  UNL1        0.1347
     23 C           6.3580    2.5347    0.0000 C.ar    1  UNL1        0.1966
     24 C           7.2641    0.9792    0.0000 C.ar    1  UNL1        0.1392
     25 C           7.2641    2.0208    0.0000 C.ar    1  UNL1        0.0288
     26 C           8.1282    0.4758    0.0000 C.ar    1  UNL1        0.0176
     27 C           2.0000    1.0000    0.0000 C.3     1  UNL1        0.0788
     28 C           8.9962    0.9725    0.0000 C.ar    1  UNL1       -0.0476
     29 C           8.1244   -0.5241    0.0000 C.ar    1  UNL1       -0.0476
     30 C           9.8602    0.4692    0.0000 C.ar    1  UNL1       -0.0195
     31 C           8.9884   -1.0275    0.0000 C.ar    1  UNL1       -0.0195
     32 C           9.8564   -0.5308    0.0000 C.ar    1  UNL1        0.1169
     33 H           3.7320   -0.3800    0.0000 H       1  UNL1        0.0649
     34 H           5.3342   -0.0750    0.0000 H       1  UNL1        0.0676
     35 H           3.7320   -2.6200    0.0000 H       1  UNL1        0.0647
     36 H           5.1350   -2.8100    0.0000 H       1  UNL1        0.0647
     37 H           6.0010   -1.6900    0.0000 H       1  UNL1        0.0646
     38 H           6.9407   -2.6077    0.0000 H       1  UNL1        0.0584
     39 H           6.5422   -1.9174    0.0000 H       1  UNL1        0.0584
     40 H           2.3291   -0.8100    0.0000 H       1  UNL1        0.2100
     41 H           2.8660   -3.1200    0.0000 H       1  UNL1        0.2100
     42 H           4.0611   -3.8100    0.0000 H       1  UNL1        0.2100
     43 H           3.1951    2.3100    0.0000 H       1  UNL1        0.0691
     44 H           6.8671   -3.8100    0.0000 H       1  UNL1        0.2095
     45 H           7.7998    2.3329    0.0000 H       1  UNL1        0.0693
     46 H           2.3100    1.5369    0.0000 H       1  UNL1        0.0660
     47 H           1.4631    1.3100    0.0000 H       1  UNL1        0.0660
     48 H           1.6900    0.4631    0.0000 H       1  UNL1        0.0660
     49 H           4.0611    3.8100    0.0000 H       1  UNL1        0.2922
     50 H           8.9985    1.5925    0.0000 H       1  UNL1        0.0626
     51 H           7.5862   -0.8321    0.0000 H       1  UNL1        0.0626
     52 H          10.3984    0.7771    0.0000 H       1  UNL1        0.0654
     53 H           8.9860   -1.6475    0.0000 H       1  UNL1        0.0654
     54 H          11.2586   -0.7262    0.0000 H       1  UNL1        0.2921
@<TRIPOS>BOND
     1     1    13    1
     2     1    15    1
     3     2    11    1
     4     2    40    1
     5    12     3    1
     6     3    41    1
     7    14     4    1
     8     4    42    1
     9     5    18   ar
    10     5    24   ar
    11     6    17    1
    12     6    44    1
    13     7    19    1
    14     7    27    1
    15     8    22    1
    16     8    49    1
    17     9    23    2
    18    10    32    1
    19    10    54    1
    20    11    12    1
    21    11    13    1
    22    11    33    1
    23    12    14    1
    24    12    35    1
    25    13    16    1
    26    13    34    1
    27    14    15    1
    28    14    36    1
    29    15    17    1
    30    15    37    1
    31    16    18   ar
    32    16    19   ar
    33    17    38    1
    34    17    39    1
    35    18    20   ar
    36    19    21   ar
    37    20    22   ar
    38    20    23   ar
    39    21    22   ar
    40    21    43    1
    41    23    25   ar
    42    24    25   ar
    43    24    26    1
    44    25    45    1
    45    26    28   ar
    46    26    29   ar
    47    27    46    1
    48    27    47    1
    49    27    48    1
    50    28    30   ar
    51    28    50    1
    52    29    31   ar
    53    29    51    1
    54    30    32   ar
    55    30    52    1
    56    31    32   ar
    57    31    53    1
