@<TRIPOS>MOLECULE
IMPHY016317
 48 47 0 0 0
SMALL
GASTEIGER

@<TRIPOS>ATOM
      1 C           4.5981   -0.0670    0.0000 C.3     1  UNL1       -0.0339
      2 C           5.4641    0.4330    0.0000 C.3     1  UNL1       -0.0424
      3 C           6.3301   -0.0670    0.0000 C.3     1  UNL1       -0.0307
      4 C           3.7320   -0.5670    0.0000 C.3     1  UNL1       -0.0429
      5 C           2.8660   -0.0670    0.0000 C.3     1  UNL1       -0.0372
      6 C           4.0981    0.7990    0.0000 C.3     1  UNL1       -0.0598
      7 C           5.0981   -0.9330    0.0000 C.3     1  UNL1       -0.0598
      8 C           7.1962   -0.5670    0.0000 C.3     1  UNL1       -0.0271
      9 C           6.8301    0.7990    0.0000 C.3     1  UNL1       -0.0595
     10 C           5.8301   -0.9330    0.0000 C.3     1  UNL1       -0.0595
     11 C           2.0000    0.4330    0.0000 C.3     1  UNL1       -0.0600
     12 C           2.3660   -0.9330    0.0000 C.3     1  UNL1       -0.0600
     13 C           3.3660    0.7990    0.0000 C.3     1  UNL1       -0.0600
     14 C           8.0622   -0.0670    0.0000 C.2     1  UNL1       -0.0792
     15 C           8.9282   -0.5670    0.0000 C.3     1  UNL1       -0.0440
     16 C           8.0622    0.9330    0.0000 C.2     1  UNL1       -0.0997
     17 H           5.8626    0.9080    0.0000 H       1  UNL1        0.0276
     18 H           5.0656    0.9080    0.0000 H       1  UNL1        0.0276
     19 H           3.3335   -1.0419    0.0000 H       1  UNL1        0.0276
     20 H           4.1306   -1.0419    0.0000 H       1  UNL1        0.0276
     21 H           4.6350    1.1090    0.0000 H       1  UNL1        0.0235
     22 H           3.7881    1.3360    0.0000 H       1  UNL1        0.0235
     23 H           3.5611    0.4890    0.0000 H       1  UNL1        0.0235
     24 H           4.5611   -1.2430    0.0000 H       1  UNL1        0.0235
     25 H           5.4081   -1.4700    0.0000 H       1  UNL1        0.0235
     26 H           5.6350   -0.6230    0.0000 H       1  UNL1        0.0235
     27 H           6.7976   -1.0419    0.0000 H       1  UNL1        0.0315
     28 H           7.5947   -1.0419    0.0000 H       1  UNL1        0.0315
     29 H           7.3671    0.4890    0.0000 H       1  UNL1        0.0235
     30 H           7.1401    1.3360    0.0000 H       1  UNL1        0.0235
     31 H           6.2932    1.1090    0.0000 H       1  UNL1        0.0235
     32 H           5.2932   -0.6230    0.0000 H       1  UNL1        0.0235
     33 H           5.5201   -1.4700    0.0000 H       1  UNL1        0.0235
     34 H           6.3671   -1.2430    0.0000 H       1  UNL1        0.0235
     35 H           2.3100    0.9699    0.0000 H       1  UNL1        0.0235
     36 H           1.4631    0.7430    0.0000 H       1  UNL1        0.0235
     37 H           1.6900   -0.1039    0.0000 H       1  UNL1        0.0235
     38 H           1.8291   -0.6230    0.0000 H       1  UNL1        0.0235
     39 H           2.0560   -1.4700    0.0000 H       1  UNL1        0.0235
     40 H           2.9030   -1.2430    0.0000 H       1  UNL1        0.0235
     41 H           3.9030    0.4890    0.0000 H       1  UNL1        0.0235
     42 H           3.6760    1.3360    0.0000 H       1  UNL1        0.0235
     43 H           2.8291    1.1090    0.0000 H       1  UNL1        0.0235
     44 H           8.6182   -1.1039    0.0000 H       1  UNL1        0.0274
     45 H           9.4651   -0.8770    0.0000 H       1  UNL1        0.0274
     46 H           9.2382   -0.0301    0.0000 H       1  UNL1        0.0274
     47 H           8.5991    1.2430    0.0000 H       1  UNL1        0.0534
     48 H           7.5252    1.2430    0.0000 H       1  UNL1        0.0534
@<TRIPOS>BOND
     1     1     2    1
     2     1     4    1
     3     1     6    1
     4     1     7    1
     5     2     3    1
     6     2    17    1
     7     2    18    1
     8     3     8    1
     9     3     9    1
    10     3    10    1
    11     4     5    1
    12     4    19    1
    13     4    20    1
    14     5    11    1
    15     5    12    1
    16     5    13    1
    17     6    21    1
    18     6    22    1
    19     6    23    1
    20     7    24    1
    21     7    25    1
    22     7    26    1
    23     8    14    1
    24     8    27    1
    25     8    28    1
    26     9    29    1
    27     9    30    1
    28     9    31    1
    29    10    32    1
    30    10    33    1
    31    10    34    1
    32    11    35    1
    33    11    36    1
    34    11    37    1
    35    12    38    1
    36    12    39    1
    37    12    40    1
    38    13    41    1
    39    13    42    1
    40    13    43    1
    41    14    15    1
    42    14    16    2
    43    15    44    1
    44    15    45    1
    45    15    46    1
    46    16    47    1
    47    16    48    1
