@<TRIPOS>MOLECULE
IMPHY015736
 38 37 0 0 0
SMALL
GASTEIGER

@<TRIPOS>ATOM
      1 O           7.1962    0.2500    0.0000 O.3     1  UNL1       -0.4646
      2 O           8.0622   -1.2500    0.0000 O.2     1  UNL1       -0.2509
      3 C          10.6603    0.2500    0.0000 C.3     1  UNL1       -0.0462
      4 C           9.7942   -0.2500    0.0000 C.3     1  UNL1       -0.0406
      5 C           4.5981   -0.2500    0.0000 C.3     1  UNL1       -0.0500
      6 C           5.4641    0.2500    0.0000 C.3     1  UNL1       -0.0185
      7 C           3.7320    0.2500    0.0000 C.3     1  UNL1       -0.0532
      8 C           8.9282    0.2500    0.0000 C.3     1  UNL1        0.0452
      9 C           6.3301   -0.2500    0.0000 C.3     1  UNL1        0.0925
     10 C           2.8660   -0.2500    0.0000 C.3     1  UNL1       -0.0559
     11 C          11.5263   -0.2500    0.0000 C.3     1  UNL1       -0.0627
     12 C          10.6603    1.2500    0.0000 C.3     1  UNL1       -0.0627
     13 C           8.0622   -0.2500    0.0000 C.2     1  UNL1        0.3071
     14 C           2.0000    0.2500    0.0000 C.3     1  UNL1       -0.0653
     15 H          11.1972    0.5600    0.0000 H       1  UNL1        0.0296
     16 H           9.3957   -0.7249    0.0000 H       1  UNL1        0.0273
     17 H          10.1928   -0.7249    0.0000 H       1  UNL1        0.0273
     18 H           4.1996   -0.7249    0.0000 H       1  UNL1        0.0266
     19 H           4.9966   -0.7249    0.0000 H       1  UNL1        0.0266
     20 H           5.8626    0.7249    0.0000 H       1  UNL1        0.0298
     21 H           5.0656    0.7249    0.0000 H       1  UNL1        0.0298
     22 H           4.1306    0.7249    0.0000 H       1  UNL1        0.0265
     23 H           3.3335    0.7249    0.0000 H       1  UNL1        0.0265
     24 H           9.3267    0.7249    0.0000 H       1  UNL1        0.0378
     25 H           8.5297    0.7249    0.0000 H       1  UNL1        0.0378
     26 H           5.9316   -0.7249    0.0000 H       1  UNL1        0.0697
     27 H           6.7287   -0.7249    0.0000 H       1  UNL1        0.0697
     28 H           2.4675   -0.7249    0.0000 H       1  UNL1        0.0263
     29 H           3.2646   -0.7249    0.0000 H       1  UNL1        0.0263
     30 H          11.2163   -0.7869    0.0000 H       1  UNL1        0.0232
     31 H          12.0632   -0.5600    0.0000 H       1  UNL1        0.0232
     32 H          11.8363    0.2869    0.0000 H       1  UNL1        0.0232
     33 H          11.2803    1.2500    0.0000 H       1  UNL1        0.0232
     34 H          10.6603    1.8700    0.0000 H       1  UNL1        0.0232
     35 H          10.0403    1.2500    0.0000 H       1  UNL1        0.0232
     36 H           2.3100    0.7869    0.0000 H       1  UNL1        0.0230
     37 H           1.4631    0.5600    0.0000 H       1  UNL1        0.0230
     38 H           1.6900   -0.2869    0.0000 H       1  UNL1        0.0230
@<TRIPOS>BOND
     1     1     9    1
     2     1    13    1
     3     2    13    2
     4     3     4    1
     5     3    11    1
     6     3    12    1
     7     3    15    1
     8     4     8    1
     9     4    16    1
    10     4    17    1
    11     5     6    1
    12     5     7    1
    13     5    18    1
    14     5    19    1
    15     6     9    1
    16     6    20    1
    17     6    21    1
    18     7    10    1
    19     7    22    1
    20     7    23    1
    21     8    13    1
    22     8    24    1
    23     8    25    1
    24     9    26    1
    25     9    27    1
    26    10    14    1
    27    10    28    1
    28    10    29    1
    29    11    30    1
    30    11    31    1
    31    11    32    1
    32    12    33    1
    33    12    34    1
    34    12    35    1
    35    14    36    1
    36    14    37    1
    37    14    38    1
