@<TRIPOS>MOLECULE
IMPHY009262
 43 46 0 0 0
SMALL
GASTEIGER

@<TRIPOS>ATOM
      1 O           8.3270   -2.4595    0.0000 O.3     1  UNL1       -0.3913
      2 O           9.5828    0.8501    0.0000 O.2     1  UNL1       -0.2755
      3 N           3.7360    0.4289    0.0000 N.3     1  UNL1       -0.2988
      4 N           7.8349    0.5701    0.0000 N.am    1  UNL1       -0.2977
      5 C           6.0449    1.7013    0.0000 C.3     1  UNL1       -0.0092
      6 C           5.7861    0.7354    0.0000 C.3     1  UNL1       -0.0092
      7 C           4.0117    1.3902    0.0000 C.3     1  UNL1        0.0147
      8 C           7.0578   -0.0593    0.0000 C.3     1  UNL1        0.0323
      9 C           5.3083    2.6839    0.0000 C.3     1  UNL1       -0.0417
     10 C           4.5650   -0.1303    0.0000 C.3     1  UNL1        0.0037
     11 C           7.4765    1.5036    0.0000 C.3     1  UNL1        0.0192
     12 C           3.2997    2.1505    0.0000 C.3     1  UNL1       -0.0370
     13 C           7.2048   -1.0904    0.0000 C.3     1  UNL1       -0.0074
     14 C           2.7293    0.1614    0.0000 C.3     1  UNL1       -0.0008
     15 C           2.2871    1.9063    0.0000 C.3     1  UNL1       -0.0505
     16 C           2.0000    0.9051    0.0000 C.3     1  UNL1       -0.0401
     17 C           8.1744   -1.4712    0.0000 C.3     1  UNL1        0.0652
     18 C           8.8130    0.2118    0.0000 C.2     1  UNL1        0.2183
     19 C           8.9839   -0.8157    0.0000 C.3     1  UNL1        0.0502
     20 H           6.2649    2.5224    0.0000 H       1  UNL1        0.0331
     21 H           5.5661   -0.0857    0.0000 H       1  UNL1        0.0331
     22 H           4.2460    2.2072    0.0000 H       1  UNL1        0.0466
     23 H           6.3972   -0.5942    0.0000 H       1  UNL1        0.0504
     24 H           5.6261    3.2163    0.0000 H       1  UNL1        0.0273
     25 H           4.6951    2.7759    0.0000 H       1  UNL1        0.0273
     26 H           4.1592   -0.5990    0.0000 H       1  UNL1        0.0430
     27 H           4.9817   -0.5894    0.0000 H       1  UNL1        0.0430
     28 H           8.0844    1.6260    0.0000 H       1  UNL1        0.0468
     29 H           7.4575    2.1234    0.0000 H       1  UNL1        0.0468
     30 H           3.8181    2.4906    0.0000 H       1  UNL1        0.0280
     31 H           3.0534    2.7195    0.0000 H       1  UNL1        0.0280
     32 H           6.5851   -1.0717    0.0000 H       1  UNL1        0.0308
     33 H           7.0803   -1.6978    0.0000 H       1  UNL1        0.0308
     34 H           2.2189   -0.1906    0.0000 H       1  UNL1        0.0427
     35 H           2.9888   -0.4017    0.0000 H       1  UNL1        0.0427
     36 H           2.2470    2.5250    0.0000 H       1  UNL1        0.0266
     37 H           1.6707    1.9727    0.0000 H       1  UNL1        0.0266
     38 H           1.4420    1.1754    0.0000 H       1  UNL1        0.0278
     39 H           1.6382    0.4016    0.0000 H       1  UNL1        0.0278
     40 H           8.7528   -1.6945    0.0000 H       1  UNL1        0.0598
     41 H           9.2858   -1.3572    0.0000 H       1  UNL1        0.0384
     42 H           9.5690   -0.6108    0.0000 H       1  UNL1        0.0384
     43 H           8.9050   -2.6839    0.0000 H       1  UNL1        0.2098
@<TRIPOS>BOND
     1    17     1    1
     2     1    43    1
     3     2    18    2
     4     3     7    1
     5     3    10    1
     6     3    14    1
     7     4     8    1
     8     4    11    1
     9     4    18   am
    10     5     7    1
    11     5     9    1
    12     5    11    1
    13     5    20    1
    14     6     8    1
    15     6     9    1
    16     6    10    1
    17     6    21    1
    18     7    12    1
    19     7    22    1
    20     8    13    1
    21     8    23    1
    22     9    24    1
    23     9    25    1
    24    10    26    1
    25    10    27    1
    26    11    28    1
    27    11    29    1
    28    12    15    1
    29    12    30    1
    30    12    31    1
    31    13    17    1
    32    13    32    1
    33    13    33    1
    34    14    16    1
    35    14    34    1
    36    14    35    1
    37    15    16    1
    38    15    36    1
    39    15    37    1
    40    16    38    1
    41    16    39    1
    42    17    19    1
    43    17    40    1
    44    18    19    1
    45    19    41    1
    46    19    42    1
