@<TRIPOS>MOLECULE
IMPHY002170
 48 52 0 0 0
SMALL
GASTEIGER

@<TRIPOS>ATOM
      1 O           3.1395    1.6531    0.0000 O.3     1  UNL1       -0.3929
      2 N           7.7915   -0.4452    0.0000 N.4     1  UNL1        0.2508
      3 N           4.4698    0.0430    0.0000 N.ar    1  UNL1       -0.3331
      4 C           6.5198    0.3495    0.0000 C.3     1  UNL1        0.0232
      5 C           6.7786    1.3154    0.0000 C.3     1  UNL1        0.0134
      6 C           6.0420    2.2980    0.0000 C.3     1  UNL1        0.0048
      7 C           5.2988   -0.5162    0.0000 C.ar    1  UNL1        0.0719
      8 C           4.7454    1.0043    0.0000 C.3     1  UNL1        0.0649
      9 C           8.5686    0.1842    0.0000 C.3     1  UNL1       -0.0075
     10 C           7.5372   -2.0136    0.0000 C.3     1  UNL1       -0.0252
     11 C           8.2103    1.1177    0.0000 C.2     1  UNL1       -0.0239
     12 C           5.0223   -1.4710    0.0000 C.ar    1  UNL1       -0.0084
     13 C           6.1144   -2.5088    0.0000 C.3     1  UNL1        0.0152
     14 C           7.8438   -1.4438    0.0000 C.3     1  UNL1       -0.0403
     15 C           3.6880   -0.5710    0.0000 C.ar    1  UNL1        0.0500
     16 C           4.0288   -1.5049    0.0000 C.ar    1  UNL1        0.0037
     17 C           4.1297    1.7923    0.0000 C.3     1  UNL1        0.0655
     18 C           8.7549    1.9564    0.0000 C.2     1  UNL1       -0.0825
     19 C           2.6710   -0.3764    0.0000 C.ar    1  UNL1       -0.0376
     20 C           3.3762   -2.3088    0.0000 C.ar    1  UNL1       -0.0523
     21 C           9.7536    1.9041    0.0000 C.3     1  UNL1       -0.0464
     22 C           2.0000   -1.1650    0.0000 C.ar    1  UNL1       -0.0598
     23 C           2.3550   -2.1378    0.0000 C.ar    1  UNL1       -0.0611
     24 H           7.2132    0.8411    0.0000 H       1  UNL1        0.0920
     25 H           6.9986    2.1364    0.0000 H       1  UNL1        0.0370
     26 H           6.3598    2.8304    0.0000 H       1  UNL1        0.0330
     27 H           5.4289    2.3900    0.0000 H       1  UNL1        0.0330
     28 H           4.1368    0.8860    0.0000 H       1  UNL1        0.0556
     29 H           8.9063   -0.3358    0.0000 H       1  UNL1        0.0865
     30 H           9.1211    0.4656    0.0000 H       1  UNL1        0.0865
     31 H           7.6419   -2.6246    0.0000 H       1  UNL1        0.0818
     32 H           8.1572   -2.0108    0.0000 H       1  UNL1        0.0818
     33 H           5.6217   -2.8852    0.0000 H       1  UNL1        0.0366
     34 H           6.4082   -3.0548    0.0000 H       1  UNL1        0.0366
     35 H           7.2247   -1.4762    0.0000 H       1  UNL1        0.0778
     36 H           7.8763   -2.0629    0.0000 H       1  UNL1        0.0778
     37 H           8.4630   -1.4113    0.0000 H       1  UNL1        0.0778
     38 H           4.6772    2.0834    0.0000 H       1  UNL1        0.0578
     39 H           3.9381    2.3819    0.0000 H       1  UNL1        0.0578
     40 H           8.4734    2.5088    0.0000 H       1  UNL1        0.0571
     41 H           2.4652    0.2084    0.0000 H       1  UNL1        0.0638
     42 H           3.5955   -2.8887    0.0000 H       1  UNL1        0.0624
     43 H           9.7211    1.2849    0.0000 H       1  UNL1        0.0272
     44 H          10.3727    1.8716    0.0000 H       1  UNL1        0.0272
     45 H           9.7860    2.5232    0.0000 H       1  UNL1        0.0272
     46 H           2.7578    2.1417    0.0000 H       1  UNL1        0.2095
     47 H           1.3897   -1.0556    0.0000 H       1  UNL1        0.0618
     48 H           1.9587   -2.6146    0.0000 H       1  UNL1        0.0618
@<TRIPOS>UNITY_ATOM_ATTR
2 1
charge 1
@<TRIPOS>BOND
     1     1    17    1
     2     1    46    1
     3     2     4    1
     4     2     9    1
     5     2    10    1
     6     2    14    1
     7     3     7   ar
     8     3     8    1
     9     3    15   ar
    10     4     6    1
    11     4     7    1
    12     4    24    1
    13     5     6    1
    14     5     8    1
    15     5    11    1
    16     5    25    1
    17     6    26    1
    18     6    27    1
    19     7    12   ar
    20     8    17    1
    21     8    28    1
    22     9    11    1
    23     9    29    1
    24     9    30    1
    25    10    13    1
    26    10    31    1
    27    10    32    1
    28    11    18    2
    29    12    13    1
    30    12    16   ar
    31    13    33    1
    32    13    34    1
    33    14    35    1
    34    14    36    1
    35    14    37    1
    36    15    16   ar
    37    15    19   ar
    38    16    20   ar
    39    17    38    1
    40    17    39    1
    41    18    21    1
    42    18    40    1
    43    19    22   ar
    44    19    41    1
    45    20    23   ar
    46    20    42    1
    47    21    43    1
    48    21    44    1
    49    21    45    1
    50    22    23   ar
    51    22    47    1
    52    23    48    1
