@<TRIPOS>MOLECULE
IMPHY001557
 37 37 0 0 0
SMALL
GASTEIGER

@<TRIPOS>ATOM
      1 O           4.5981   -2.0950    0.0000 O.3     1  UNL1       -0.3918
      2 C           4.5981   -1.0950    0.0000 C.3     1  UNL1        0.0553
      3 C           3.7320   -0.5950    0.0000 C.3     1  UNL1       -0.0269
      4 C           5.4641   -0.5950    0.0000 C.3     1  UNL1       -0.0269
      5 C           5.4641    0.4050    0.0000 C.3     1  UNL1       -0.0507
      6 C           2.8660   -1.0950    0.0000 C.3     1  UNL1       -0.0507
      7 C           4.5981    0.9050    0.0000 C.3     1  UNL1       -0.0530
      8 C           2.0000   -0.5950    0.0000 C.3     1  UNL1       -0.0530
      9 C           2.0000    0.4050    0.0000 C.3     1  UNL1       -0.0531
     10 C           4.5981    1.9050    0.0000 C.3     1  UNL1       -0.0531
     11 C           3.7320    2.4050    0.0000 C.3     1  UNL1       -0.0531
     12 C           2.8660    0.9050    0.0000 C.3     1  UNL1       -0.0531
     13 C           2.8660    1.9050    0.0000 C.3     1  UNL1       -0.0531
     14 H           5.1350   -1.4050    0.0000 H       1  UNL1        0.0593
     15 H           5.6762   -1.1776    0.0000 H       1  UNL1        0.0290
     16 H           6.0747   -0.4873    0.0000 H       1  UNL1        0.0290
     17 H           4.1306   -0.1201    0.0000 H       1  UNL1        0.0290
     18 H           3.3335   -0.1201    0.0000 H       1  UNL1        0.0290
     19 H           6.0747    0.2973    0.0000 H       1  UNL1        0.0266
     20 H           5.6762    0.9876    0.0000 H       1  UNL1        0.0266
     21 H           2.4675   -1.5700    0.0000 H       1  UNL1        0.0266
     22 H           3.2646   -1.5700    0.0000 H       1  UNL1        0.0266
     23 H           3.9875    1.0127    0.0000 H       1  UNL1        0.0265
     24 H           4.3860    0.3224    0.0000 H       1  UNL1        0.0265
     25 H           1.3894   -0.4873    0.0000 H       1  UNL1        0.0265
     26 H           1.7880   -1.1776    0.0000 H       1  UNL1        0.0265
     27 H           1.7880    0.9876    0.0000 H       1  UNL1        0.0265
     28 H           1.3894    0.2973    0.0000 H       1  UNL1        0.0265
     29 H           5.2087    1.7973    0.0000 H       1  UNL1        0.0265
     30 H           4.8101    2.4876    0.0000 H       1  UNL1        0.0265
     31 H           4.1306    2.8800    0.0000 H       1  UNL1        0.0265
     32 H           3.3335    2.8800    0.0000 H       1  UNL1        0.0265
     33 H           3.0781    0.3224    0.0000 H       1  UNL1        0.0265
     34 H           3.4766    1.0127    0.0000 H       1  UNL1        0.0265
     35 H           2.6540    2.4876    0.0000 H       1  UNL1        0.0265
     36 H           2.2554    1.7973    0.0000 H       1  UNL1        0.0265
     37 H           5.1350   -2.4050    0.0000 H       1  UNL1        0.2098
@<TRIPOS>BOND
     1     1     2    1
     2     1    37    1
     3     2     3    1
     4     2     4    1
     5     2    14    1
     6     3     6    1
     7     3    17    1
     8     3    18    1
     9     4     5    1
    10     4    15    1
    11     4    16    1
    12     5     7    1
    13     5    19    1
    14     5    20    1
    15     6     8    1
    16     6    21    1
    17     6    22    1
    18     7    10    1
    19     7    23    1
    20     7    24    1
    21     8     9    1
    22     8    25    1
    23     8    26    1
    24     9    12    1
    25     9    27    1
    26     9    28    1
    27    10    11    1
    28    10    29    1
    29    10    30    1
    30    11    13    1
    31    11    31    1
    32    11    32    1
    33    12    13    1
    34    12    33    1
    35    12    34    1
    36    13    35    1
    37    13    36    1
