@<TRIPOS>MOLECULE
IMPHY013326
 32 34 0 0 0
SMALL
GASTEIGER

@<TRIPOS>ATOM
      1 O           4.6660   -1.7327    0.0000 O.2     1  UNL1       -0.4209
      2 O           6.3981   -1.7327    0.0000 O.2     1  UNL1       -0.2431
      3 N           6.3981    0.2673    0.0000 N.pl3   1  UNL1       -0.3244
      4 C           8.1301    1.2673    0.0000 C.3     1  UNL1       -0.0502
      5 C           8.1301    0.2673    0.0000 C.3     1  UNL1       -0.0372
      6 C           7.2641    1.7673    0.0000 C.3     1  UNL1       -0.0372
      7 C           7.2641   -0.2327    0.0000 C.3     1  UNL1        0.0124
      8 C           6.3981    1.2673    0.0000 C.3     1  UNL1        0.0124
      9 C           5.5321   -0.2327    0.0000 C.ar    1  UNL1        0.1160
     10 C           4.6660    0.2673    0.0000 C.ar    1  UNL1       -0.0230
     11 C           5.5321   -1.2327    0.0000 C.ar    1  UNL1        0.3586
     12 C           3.8000   -0.2327    0.0000 C.ar    1  UNL1        0.0194
     13 C           3.8000   -1.2327    0.0000 C.ar    1  UNL1        0.1392
     14 C           2.9061    0.3020    0.0000 C.ar    1  UNL1       -0.0510
     15 C           2.9061   -1.7673    0.0000 C.ar    1  UNL1       -0.0186
     16 C           2.0000   -0.2119    0.0000 C.ar    1  UNL1       -0.0610
     17 C           2.0000   -1.2535    0.0000 C.ar    1  UNL1       -0.0582
     18 H           8.7407    1.1597    0.0000 H       1  UNL1        0.0266
     19 H           8.3422    1.8499    0.0000 H       1  UNL1        0.0266
     20 H           8.3422   -0.3153    0.0000 H       1  UNL1        0.0280
     21 H           8.7407    0.3750    0.0000 H       1  UNL1        0.0280
     22 H           7.6626    2.2423    0.0000 H       1  UNL1        0.0280
     23 H           6.8656    2.2423    0.0000 H       1  UNL1        0.0280
     24 H           6.8656   -0.7076    0.0000 H       1  UNL1        0.0464
     25 H           7.6626   -0.7076    0.0000 H       1  UNL1        0.0464
     26 H           6.1860    1.8499    0.0000 H       1  UNL1        0.0464
     27 H           5.7875    1.1597    0.0000 H       1  UNL1        0.0464
     28 H           4.6660    0.8873    0.0000 H       1  UNL1        0.0645
     29 H           2.9132    0.9220    0.0000 H       1  UNL1        0.0625
     30 H           2.9132   -2.3873    0.0000 H       1  UNL1        0.0654
     31 H           1.4643    0.1002    0.0000 H       1  UNL1        0.0618
     32 H           1.4643   -1.5656    0.0000 H       1  UNL1        0.0619
@<TRIPOS>BOND
     1     1    11   ar
     2     1    13   ar
     3     2    11    2
     4     3     7    1
     5     3     8    1
     6     3     9    1
     7     4     5    1
     8     4     6    1
     9     4    18    1
    10     4    19    1
    11     5     7    1
    12     5    20    1
    13     5    21    1
    14     6     8    1
    15     6    22    1
    16     6    23    1
    17     7    24    1
    18     7    25    1
    19     8    26    1
    20     8    27    1
    21     9    10   ar
    22     9    11   ar
    23    10    12   ar
    24    10    28    1
    25    12    13   ar
    26    12    14   ar
    27    13    15   ar
    28    14    16   ar
    29    14    29    1
    30    15    17   ar
    31    15    30    1
    32    16    17   ar
    33    16    31    1
    34    17    32    1
