@<TRIPOS>MOLECULE
IMPHY015385
 53 52 0 0 0
SMALL
GASTEIGER

@<TRIPOS>ATOM
      1 C           4.5981    0.2500    0.0000 C.3     1  UNL1       -0.0439
      2 C           5.4641    0.7500    0.0000 C.3     1  UNL1       -0.0505
      3 C           6.3301    0.2500    0.0000 C.3     1  UNL1       -0.0528
      4 C           7.1962    0.7500    0.0000 C.3     1  UNL1       -0.0530
      5 C           8.0622    0.2500    0.0000 C.3     1  UNL1       -0.0531
      6 C           8.9282    0.7500    0.0000 C.3     1  UNL1       -0.0531
      7 C           3.7320    0.7500    0.0000 C.3     1  UNL1       -0.0507
      8 C           9.7942    0.2500    0.0000 C.3     1  UNL1       -0.0531
      9 C          10.6603    0.7500    0.0000 C.3     1  UNL1       -0.0531
     10 C          11.5263    0.2500    0.0000 C.3     1  UNL1       -0.0531
     11 C           4.5981   -0.7500    0.0000 C.3     1  UNL1       -0.0624
     12 C           2.8660    0.2500    0.0000 C.3     1  UNL1       -0.0557
     13 C          12.3923    0.7500    0.0000 C.3     1  UNL1       -0.0531
     14 C          13.2583    0.2500    0.0000 C.3     1  UNL1       -0.0533
     15 C           2.0000    0.7500    0.0000 C.3     1  UNL1       -0.0653
     16 C          14.1244    0.7500    0.0000 C.3     1  UNL1       -0.0559
     17 C          14.9904    0.2500    0.0000 C.3     1  UNL1       -0.0653
     18 H           5.1350   -0.0600    0.0000 H       1  UNL1        0.0298
     19 H           5.8626    1.2250    0.0000 H       1  UNL1        0.0268
     20 H           5.0656    1.2250    0.0000 H       1  UNL1        0.0268
     21 H           5.9316   -0.2249    0.0000 H       1  UNL1        0.0265
     22 H           6.7287   -0.2249    0.0000 H       1  UNL1        0.0265
     23 H           7.5947    1.2250    0.0000 H       1  UNL1        0.0265
     24 H           6.7976    1.2250    0.0000 H       1  UNL1        0.0265
     25 H           7.6636   -0.2249    0.0000 H       1  UNL1        0.0265
     26 H           8.4607   -0.2249    0.0000 H       1  UNL1        0.0265
     27 H           9.3267    1.2250    0.0000 H       1  UNL1        0.0265
     28 H           8.5297    1.2250    0.0000 H       1  UNL1        0.0265
     29 H           4.1306    1.2250    0.0000 H       1  UNL1        0.0268
     30 H           3.3335    1.2250    0.0000 H       1  UNL1        0.0268
     31 H           9.3957   -0.2249    0.0000 H       1  UNL1        0.0265
     32 H          10.1928   -0.2249    0.0000 H       1  UNL1        0.0265
     33 H          11.0588    1.2250    0.0000 H       1  UNL1        0.0265
     34 H          10.2617    1.2250    0.0000 H       1  UNL1        0.0265
     35 H          11.1278   -0.2249    0.0000 H       1  UNL1        0.0265
     36 H          11.9248   -0.2249    0.0000 H       1  UNL1        0.0265
     37 H           3.9781   -0.7500    0.0000 H       1  UNL1        0.0232
     38 H           4.5981   -1.3700    0.0000 H       1  UNL1        0.0232
     39 H           5.2181   -0.7500    0.0000 H       1  UNL1        0.0232
     40 H           2.4675   -0.2249    0.0000 H       1  UNL1        0.0263
     41 H           3.2646   -0.2249    0.0000 H       1  UNL1        0.0263
     42 H          12.7908    1.2250    0.0000 H       1  UNL1        0.0265
     43 H          11.9938    1.2250    0.0000 H       1  UNL1        0.0265
     44 H          12.8598   -0.2249    0.0000 H       1  UNL1        0.0265
     45 H          13.6569   -0.2249    0.0000 H       1  UNL1        0.0265
     46 H           2.3100    1.2869    0.0000 H       1  UNL1        0.0230
     47 H           1.4631    1.0600    0.0000 H       1  UNL1        0.0230
     48 H           1.6900    0.2131    0.0000 H       1  UNL1        0.0230
     49 H          14.5229    1.2250    0.0000 H       1  UNL1        0.0263
     50 H          13.7258    1.2250    0.0000 H       1  UNL1        0.0263
     51 H          14.6804   -0.2869    0.0000 H       1  UNL1        0.0230
     52 H          15.5273   -0.0600    0.0000 H       1  UNL1        0.0230
     53 H          15.3004    0.7869    0.0000 H       1  UNL1        0.0230
@<TRIPOS>BOND
     1     1     2    1
     2     1     7    1
     3     1    11    1
     4     1    18    1
     5     2     3    1
     6     2    19    1
     7     2    20    1
     8     3     4    1
     9     3    21    1
    10     3    22    1
    11     4     5    1
    12     4    23    1
    13     4    24    1
    14     5     6    1
    15     5    25    1
    16     5    26    1
    17     6     8    1
    18     6    27    1
    19     6    28    1
    20     7    12    1
    21     7    29    1
    22     7    30    1
    23     8     9    1
    24     8    31    1
    25     8    32    1
    26     9    10    1
    27     9    33    1
    28     9    34    1
    29    10    13    1
    30    10    35    1
    31    10    36    1
    32    11    37    1
    33    11    38    1
    34    11    39    1
    35    12    15    1
    36    12    40    1
    37    12    41    1
    38    13    14    1
    39    13    42    1
    40    13    43    1
    41    14    16    1
    42    14    44    1
    43    14    45    1
    44    15    46    1
    45    15    47    1
    46    15    48    1
    47    16    17    1
    48    16    49    1
    49    16    50    1
    50    17    51    1
    51    17    52    1
    52    17    53    1
