@<TRIPOS>MOLECULE
IMPHY017442
 35 36 0 0 0
SMALL
GASTEIGER

@<TRIPOS>ATOM
      1 O           8.0627    0.1830    0.0000 O.3     1  UNL1       -0.3650
      2 O           3.7320   -1.3170    0.0000 O.3     1  UNL1       -0.4585
      3 O           2.8660    0.1830    0.0000 O.2     1  UNL1       -0.2511
      4 C           7.1962    0.6830    0.0000 C.3     1  UNL1        0.0932
      5 C           7.1962   -0.3170    0.0000 C.3     1  UNL1        0.0885
      6 C           5.4641   -0.3170    0.0000 C.3     1  UNL1        0.0010
      7 C           6.3301   -0.8170    0.0000 C.3     1  UNL1       -0.0174
      8 C           6.3301    1.1830    0.0000 C.3     1  UNL1       -0.0212
      9 C           5.4641    0.6830    0.0000 C.3     1  UNL1       -0.0438
     10 C           4.5981   -0.8170    0.0000 C.3     1  UNL1        0.1108
     11 C           7.1962    1.6830    0.0000 C.3     1  UNL1       -0.0334
     12 C           4.0981    0.0490    0.0000 C.3     1  UNL1       -0.0248
     13 C           5.0981   -1.6830    0.0000 C.3     1  UNL1       -0.0248
     14 C           2.8660   -0.8170    0.0000 C.2     1  UNL1        0.3045
     15 C           2.0000   -1.3170    0.0000 C.3     1  UNL1        0.0333
     16 H           7.5061   -0.8540    0.0000 H       1  UNL1        0.0625
     17 H           5.4641   -0.9370    0.0000 H       1  UNL1        0.0340
     18 H           5.9316   -1.2919    0.0000 H       1  UNL1        0.0295
     19 H           6.7287   -1.2919    0.0000 H       1  UNL1        0.0295
     20 H           6.7287    1.6580    0.0000 H       1  UNL1        0.0294
     21 H           5.9316    1.6580    0.0000 H       1  UNL1        0.0294
     22 H           5.2520    1.2656    0.0000 H       1  UNL1        0.0270
     23 H           4.8535    0.5754    0.0000 H       1  UNL1        0.0270
     24 H           7.8162    1.6830    0.0000 H       1  UNL1        0.0258
     25 H           7.1962    2.3030    0.0000 H       1  UNL1        0.0258
     26 H           6.5762    1.6830    0.0000 H       1  UNL1        0.0258
     27 H           4.6350    0.3590    0.0000 H       1  UNL1        0.0268
     28 H           3.7881    0.5860    0.0000 H       1  UNL1        0.0268
     29 H           3.5611   -0.2610    0.0000 H       1  UNL1        0.0268
     30 H           4.5611   -1.9930    0.0000 H       1  UNL1        0.0268
     31 H           5.4081   -2.2200    0.0000 H       1  UNL1        0.0268
     32 H           5.6350   -1.3730    0.0000 H       1  UNL1        0.0268
     33 H           1.6900   -0.7801    0.0000 H       1  UNL1        0.0342
     34 H           1.4631   -1.6270    0.0000 H       1  UNL1        0.0342
     35 H           2.3100   -1.8539    0.0000 H       1  UNL1        0.0342
@<TRIPOS>BOND
     1     1     4    1
     2     1     5    1
     3     2    10    1
     4     2    14    1
     5     3    14    2
     6     4     5    1
     7     4     8    1
     8     4    11    1
     9     5     7    1
    10     5    16    1
    11     6     7    1
    12     6     9    1
    13     6    10    1
    14     6    17    1
    15     7    18    1
    16     7    19    1
    17     8     9    1
    18     8    20    1
    19     8    21    1
    20     9    22    1
    21     9    23    1
    22    10    12    1
    23    10    13    1
    24    11    24    1
    25    11    25    1
    26    11    26    1
    27    12    27    1
    28    12    28    1
    29    12    29    1
    30    13    30    1
    31    13    31    1
    32    13    32    1
    33    14    15    1
    34    15    33    1
    35    15    34    1
    36    15    35    1
