@<TRIPOS>MOLECULE
IMPHY004835
 30 32 0 0 0
SMALL
GASTEIGER

@<TRIPOS>ATOM
      1 O           6.4144    1.8592    0.0000 O.3     1  UNL1       -0.5028
      2 O           4.6660    1.8246    0.0000 O.2     1  UNL1       -0.2864
      3 O           4.6660   -2.1754    0.0000 O.2     1  UNL1       -0.2866
      4 O           8.1962    0.8488    0.0000 O.3     1  UNL1       -0.5031
      5 O           2.9176    1.8592    0.0000 O.3     1  UNL1       -0.5060
      6 C           5.5321    0.3246    0.0000 C.ar    1  UNL1        0.0782
      7 C           5.5321   -0.6754    0.0000 C.ar    1  UNL1        0.0371
      8 C           3.8000    0.3246    0.0000 C.ar    1  UNL1        0.0745
      9 C           3.8000   -0.6754    0.0000 C.ar    1  UNL1        0.0366
     10 C           4.6660    0.8246    0.0000 C.2     1  UNL1        0.2016
     11 C           4.6660   -1.1754    0.0000 C.2     1  UNL1        0.1947
     12 C           6.4260   -1.2100    0.0000 C.ar    1  UNL1       -0.0436
     13 C           6.4260    0.8593    0.0000 C.ar    1  UNL1        0.1702
     14 C           7.3321   -0.6962    0.0000 C.ar    1  UNL1       -0.0047
     15 C           7.3321    0.3454    0.0000 C.ar    1  UNL1        0.1620
     16 C           2.9061    0.8593    0.0000 C.ar    1  UNL1        0.1283
     17 C           2.9061   -1.2100    0.0000 C.ar    1  UNL1       -0.0500
     18 C           8.1962   -1.1995    0.0000 C.3     1  UNL1       -0.0361
     19 C           2.0000    0.3454    0.0000 C.ar    1  UNL1       -0.0194
     20 C           2.0000   -0.6962    0.0000 C.ar    1  UNL1       -0.0576
     21 H           6.4188   -1.8300    0.0000 H       1  UNL1        0.0629
     22 H           2.9132   -1.8300    0.0000 H       1  UNL1        0.0625
     23 H           7.8841   -1.7353    0.0000 H       1  UNL1        0.0279
     24 H           8.7319   -1.5116    0.0000 H       1  UNL1        0.0279
     25 H           8.5082   -0.6638    0.0000 H       1  UNL1        0.0279
     26 H           1.4643    0.6575    0.0000 H       1  UNL1        0.0654
     27 H           1.4643   -1.0083    0.0000 H       1  UNL1        0.0619
     28 H           6.9478    2.1754    0.0000 H       1  UNL1        0.2923
     29 H           8.7343    0.5408    0.0000 H       1  UNL1        0.2923
     30 H           2.3843    2.1754    0.0000 H       1  UNL1        0.2922
@<TRIPOS>BOND
     1     1    13    1
     2     1    28    1
     3     2    10    2
     4     3    11    2
     5     4    15    1
     6     4    29    1
     7     5    16    1
     8     5    30    1
     9     6     7   ar
    10     6    10    1
    11     6    13   ar
    12     7    11    1
    13     7    12   ar
    14     8     9   ar
    15     8    10    1
    16     8    16   ar
    17     9    11    1
    18     9    17   ar
    19    12    14   ar
    20    12    21    1
    21    13    15   ar
    22    14    15   ar
    23    14    18    1
    24    16    19   ar
    25    17    20   ar
    26    17    22    1
    27    18    23    1
    28    18    24    1
    29    18    25    1
    30    19    20   ar
    31    19    26    1
    32    20    27    1
