@<TRIPOS>MOLECULE
IMPHY012322
 18 18 0 0 0
SMALL
GASTEIGER

@<TRIPOS>ATOM
      1 O           4.5981   -0.8450    0.0000 O.2     1  UNL1       -0.4897
      2 O           2.0000   -1.3450    0.0000 O.3     1  UNL1       -0.3804
      3 O           3.7320    1.6550    0.0000 O.2     1  UNL1       -0.5012
      4 O           2.0000    0.6550    0.0000 O.2     1  UNL1       -0.2858
      5 C           2.8660   -0.8450    0.0000 C.3     1  UNL1        0.1544
      6 C           3.7320   -1.3450    0.0000 C.3     1  UNL1        0.1224
      7 C           2.8660    0.1550    0.0000 C.2     1  UNL1        0.2319
      8 C           4.5981    0.1550    0.0000 C.2     1  UNL1        0.1395
      9 C           3.7320    0.6550    0.0000 C.2     1  UNL1        0.1999
     10 C           5.4641    0.6550    0.0000 C.3     1  UNL1       -0.0032
     11 H           2.8660   -1.4650    0.0000 H       1  UNL1        0.0712
     12 H           3.3335   -1.8200    0.0000 H       1  UNL1        0.0727
     13 H           4.1306   -1.8200    0.0000 H       1  UNL1        0.0727
     14 H           5.7741    0.1181    0.0000 H       1  UNL1        0.0309
     15 H           6.0010    0.9650    0.0000 H       1  UNL1        0.0309
     16 H           5.1541    1.1919    0.0000 H       1  UNL1        0.0309
     17 H           2.0000   -1.9650    0.0000 H       1  UNL1        0.2105
     18 H           4.2690    1.9650    0.0000 H       1  UNL1        0.2924
@<TRIPOS>BOND
     1     1     6    1
     2     1     8    1
     3     2     5    1
     4     2    17    1
     5     3     9    1
     6     3    18    1
     7     4     7    2
     8     5     6    1
     9     5     7    1
    10     5    11    1
    11     6    12    1
    12     6    13    1
    13     7     9    1
    14     8     9    2
    15     8    10    1
    16    10    14    1
    17    10    15    1
    18    10    16    1
