@<TRIPOS>MOLECULE
IMPHY005631
 16 15 0 0 0
SMALL
GASTEIGER

@<TRIPOS>ATOM
      1 O           2.5369    0.4400    0.0000 O.3     1  UNL1       -0.3747
      2 O           5.1350   -1.0600    0.0000 O.2     1  UNL1       -0.2761
      3 N           4.2690    0.4400    0.0000 N.am    1  UNL1       -0.2907
      4 C           3.4030   -0.0600    0.0000 C.3     1  UNL1        0.1185
      5 C           3.4030   -1.0600    0.0000 C.3     1  UNL1       -0.0220
      6 C           5.1350   -0.0600    0.0000 C.2     1  UNL1        0.2118
      7 C           6.0010    0.4400    0.0000 C.3     1  UNL1        0.0122
      8 H           3.4030    0.5600    0.0000 H       1  UNL1        0.0802
      9 H           4.2690    1.0600    0.0000 H       1  UNL1        0.1511
     10 H           2.7830   -1.0600    0.0000 H       1  UNL1        0.0271
     11 H           3.4030   -1.6800    0.0000 H       1  UNL1        0.0271
     12 H           4.0230   -1.0600    0.0000 H       1  UNL1        0.0271
     13 H           6.3110   -0.0969    0.0000 H       1  UNL1        0.0322
     14 H           6.5380    0.7500    0.0000 H       1  UNL1        0.0322
     15 H           5.6910    0.9769    0.0000 H       1  UNL1        0.0322
     16 H           2.0000    0.1300    0.0000 H       1  UNL1        0.2117
@<TRIPOS>BOND
     1     1     4    1
     2     1    16    1
     3     2     6    2
     4     3     4    1
     5     3     6   am
     6     3     9    1
     7     4     5    1
     8     4     8    1
     9     5    10    1
    10     5    11    1
    11     5    12    1
    12     6     7    1
    13     7    13    1
    14     7    14    1
    15     7    15    1
