@<TRIPOS>MOLECULE
IMPHY005302
 49 52 0 0 0
SMALL
GASTEIGER

@<TRIPOS>ATOM
      1 O           5.1350    0.1204    0.0000 O.3     1  UNL1       -0.3313
      2 O           6.8671    0.1204    0.0000 O.3     1  UNL1       -0.4601
      3 O           5.1350   -2.8796    0.0000 O.3     1  UNL1       -0.3864
      4 O           3.4030   -1.8796    0.0000 O.3     1  UNL1       -0.3865
      5 O           6.8671   -1.8796    0.0000 O.3     1  UNL1       -0.3829
      6 O           2.5369   -0.3796    0.0000 O.3     1  UNL1       -0.3924
      7 O          10.4107    3.1489    0.0000 O.2     1  UNL1       -0.4596
      8 O           8.6158    0.1348    0.0000 O.3     1  UNL1       -0.5052
      9 O          10.3636    0.0800    0.0000 O.2     1  UNL1       -0.2869
     10 C           5.1350   -1.8796    0.0000 C.3     1  UNL1        0.1152
     11 C           4.2690   -1.3796    0.0000 C.3     1  UNL1        0.1120
     12 C           6.0010   -1.3796    0.0000 C.3     1  UNL1        0.1454
     13 C           4.2690   -0.3796    0.0000 C.3     1  UNL1        0.1140
     14 C           6.0010   -0.3796    0.0000 C.3     1  UNL1        0.2308
     15 C           3.4030    0.1204    0.0000 C.3     1  UNL1        0.0731
     16 C           6.8671    1.1204    0.0000 C.ar    1  UNL1        0.1352
     17 C           7.7671    1.6447    0.0000 C.ar    1  UNL1        0.0662
     18 C           7.7787    2.6446    0.0000 C.ar    1  UNL1       -0.0074
     19 C           8.6273    1.1347    0.0000 C.ar    1  UNL1        0.1424
     20 C           5.9670    1.6447    0.0000 C.ar    1  UNL1       -0.0191
     21 C           9.4991    1.6247    0.0000 C.ar    1  UNL1        0.1059
     22 C           8.6504    3.1346    0.0000 C.ar    1  UNL1       -0.0106
     23 C           9.5106    2.6246    0.0000 C.ar    1  UNL1        0.1429
     24 C           6.8910    3.1896    0.0000 C.ar    1  UNL1       -0.0536
     25 C           5.9790    2.6863    0.0000 C.ar    1  UNL1       -0.0577
     26 C          10.3868    1.0797    0.0000 C.ar    1  UNL1        0.1963
     27 C          11.3108    2.6246    0.0000 C.ar    1  UNL1        0.1062
     28 C          11.2987    1.5830    0.0000 C.ar    1  UNL1        0.0237
     29 C          12.1806    3.1179    0.0000 C.3     1  UNL1       -0.0062
     30 H           5.6720   -2.1896    0.0000 H       1  UNL1        0.0648
     31 H           3.7320   -1.0696    0.0000 H       1  UNL1        0.0647
     32 H           6.5380   -1.0696    0.0000 H       1  UNL1        0.0683
     33 H           4.2690    0.2404    0.0000 H       1  UNL1        0.0647
     34 H           6.0010    0.2404    0.0000 H       1  UNL1        0.1084
     35 H           3.8015    0.5954    0.0000 H       1  UNL1        0.0584
     36 H           3.0044    0.5954    0.0000 H       1  UNL1        0.0584
     37 H           4.5981   -3.1896    0.0000 H       1  UNL1        0.2100
     38 H           3.4030   -2.4996    0.0000 H       1  UNL1        0.2100
     39 H           6.8671   -2.4996    0.0000 H       1  UNL1        0.2102
     40 H           2.0000   -0.0696    0.0000 H       1  UNL1        0.2095
     41 H           5.4277    1.3388    0.0000 H       1  UNL1        0.0654
     42 H           8.6576    3.7545    0.0000 H       1  UNL1        0.0661
     43 H           6.9053    3.8094    0.0000 H       1  UNL1        0.0624
     44 H           5.4470    3.0045    0.0000 H       1  UNL1        0.0619
     45 H          11.8308    1.2648    0.0000 H       1  UNL1        0.0689
     46 H           9.1491   -0.1814    0.0000 H       1  UNL1        0.2922
     47 H          12.4865    2.5786    0.0000 H       1  UNL1        0.0308
     48 H          12.7199    3.4238    0.0000 H       1  UNL1        0.0308
     49 H          11.8748    3.6572    0.0000 H       1  UNL1        0.0308
@<TRIPOS>BOND
     1     1    13    1
     2     1    14    1
     3    14     2    1
     4     2    16    1
     5    10     3    1
     6     3    37    1
     7    11     4    1
     8     4    38    1
     9    12     5    1
    10     5    39    1
    11     6    15    1
    12     6    40    1
    13     7    23   ar
    14     7    27   ar
    15     8    19    1
    16     8    46    1
    17     9    26    2
    18    10    11    1
    19    10    12    1
    20    10    30    1
    21    11    13    1
    22    11    31    1
    23    12    14    1
    24    12    32    1
    25    13    15    1
    26    13    33    1
    27    14    34    1
    28    15    35    1
    29    15    36    1
    30    16    17   ar
    31    16    20   ar
    32    17    18   ar
    33    17    19   ar
    34    18    22   ar
    35    18    24   ar
    36    19    21   ar
    37    20    25   ar
    38    20    41    1
    39    21    23   ar
    40    21    26   ar
    41    22    23   ar
    42    22    42    1
    43    24    25   ar
    44    24    43    1
    45    25    44    1
    46    26    28   ar
    47    27    28   ar
    48    27    29    1
    49    28    45    1
    50    29    47    1
    51    29    48    1
    52    29    49    1
