@<TRIPOS>MOLECULE
IMPHY008914
 95 98 0 0 0
SMALL
GASTEIGER

@<TRIPOS>ATOM
      1 O           6.0097    4.6698    0.0000 O.3     1  UNL1       -0.4864
      2 O           6.3587    0.7934    0.0000 O.2     1  UNL1       -0.2735
      3 O           6.5131    3.8058    0.0000 O.2     1  UNL1       -0.2736
      4 O           3.0181   -0.5632    0.0000 O.2     1  UNL1       -0.2741
      5 O           9.5274    3.7934    0.0000 O.2     1  UNL1       -0.2734
      6 N           5.3406    2.1946    0.0000 N.am    1  UNL1       -0.2849
      7 N           7.5097    2.0718    0.0000 N.am    1  UNL1       -0.3021
      8 N           4.7406   -0.3822    0.0000 N.am    1  UNL1       -0.3024
      9 N           4.9497   -2.3712    0.0000 N.3     1  UNL1       -0.2974
     10 N          10.0097    2.9378    0.0000 N.am    1  UNL1       -0.2904
     11 C           6.0097    2.9378    0.0000 C.3     1  UNL1        0.1390
     12 C           5.5097    3.8038    0.0000 C.3     1  UNL1        0.1285
     13 C           4.5316    3.5959    0.0000 C.3     1  UNL1        0.0024
     14 C           4.4271    2.6014    0.0000 C.3     1  UNL1        0.0191
     15 C           4.6361    0.6123    0.0000 C.3     1  UNL1        0.1022
     16 C           5.4451    1.2001    0.0000 C.2     1  UNL1        0.2369
     17 C           7.0097    2.9378    0.0000 C.2     1  UNL1        0.2378
     18 C           3.7226    1.0191    0.0000 C.3     1  UNL1       -0.0171
     19 C           8.5097    2.0718    0.0000 C.3     1  UNL1        0.1023
     20 C           2.9136    0.4313    0.0000 C.3     1  UNL1       -0.0512
     21 C           9.0097    1.2057    0.0000 C.3     1  UNL1       -0.0171
     22 C           3.6180    2.0136    0.0000 C.3     1  UNL1       -0.0603
     23 C           7.0097    4.6698    0.0000 C.ar    1  UNL1        0.1211
     24 C           3.9316   -0.9700    0.0000 C.2     1  UNL1        0.2312
     25 C           8.5097    0.3397    0.0000 C.3     1  UNL1       -0.0512
     26 C           4.0362   -1.9645    0.0000 C.3     1  UNL1        0.0908
     27 C           2.0000    0.8380    0.0000 C.3     1  UNL1       -0.0650
     28 C           9.0097    2.9378    0.0000 C.2     1  UNL1        0.2374
     29 C          10.0097    1.2057    0.0000 C.3     1  UNL1       -0.0603
     30 C           3.2271   -2.5523    0.0000 C.3     1  UNL1       -0.0035
     31 C           7.5097    3.8038    0.0000 C.ar    1  UNL1       -0.0194
     32 C           7.5097    5.5358    0.0000 C.ar    1  UNL1       -0.0194
     33 C           9.0097   -0.5263    0.0000 C.3     1  UNL1       -0.0650
     34 C           8.5097    3.8038    0.0000 C.ar    1  UNL1       -0.0511
     35 C           8.5097    5.5358    0.0000 C.ar    1  UNL1       -0.0511
     36 C           9.0097    4.6698    0.0000 C.ar    1  UNL1       -0.0236
     37 C           3.3317   -3.5468    0.0000 C.ar    1  UNL1       -0.0454
     38 C           5.0542   -3.3658    0.0000 C.3     1  UNL1       -0.0123
     39 C           5.7587   -1.7834    0.0000 C.3     1  UNL1       -0.0123
     40 C          10.5097    3.8038    0.0000 C.2     1  UNL1       -0.0031
     41 C          10.0097    4.6698    0.0000 C.2     1  UNL1       -0.0407
     42 C           2.5226   -4.1346    0.0000 C.ar    1  UNL1       -0.0585
     43 C           4.2452   -3.9536    0.0000 C.ar    1  UNL1       -0.0585
     44 C           2.6272   -5.1291    0.0000 C.ar    1  UNL1       -0.0615
     45 C           4.3497   -4.9481    0.0000 C.ar    1  UNL1       -0.0615
     46 C           3.5407   -5.5358    0.0000 C.ar    1  UNL1       -0.0617
     47 H           6.3555    2.1613    0.0000 H       1  UNL1        0.0634
     48 H           5.0101    4.4915    0.0000 H       1  UNL1        0.0757
     49 H           4.4668    4.2125    0.0000 H       1  UNL1        0.0317
     50 H           3.9116    3.5959    0.0000 H       1  UNL1        0.0317
     51 H           3.8206    2.7303    0.0000 H       1  UNL1        0.0466
     52 H           4.2355    2.0117    0.0000 H       1  UNL1        0.0466
     53 H           5.4126    0.2666    0.0000 H       1  UNL1        0.0597
     54 H           4.4102    1.5187    0.0000 H       1  UNL1        0.0321
     55 H           7.1997    1.5348    0.0000 H       1  UNL1        0.1495
     56 H           8.0847    1.3356    0.0000 H       1  UNL1        0.0597
     57 H           2.5668   -0.0827    0.0000 H       1  UNL1        0.0266
     58 H           3.3595    0.0006    0.0000 H       1  UNL1        0.0266
     59 H           5.3070   -0.6344    0.0000 H       1  UNL1        0.1495
     60 H           9.4347    0.4696    0.0000 H       1  UNL1        0.0321
     61 H           4.2346    2.0784    0.0000 H       1  UNL1        0.0233
     62 H           3.5532    2.6302    0.0000 H       1  UNL1        0.0233
     63 H           3.0014    1.9488    0.0000 H       1  UNL1        0.0233
     64 H           8.0348    0.7382    0.0000 H       1  UNL1        0.0266
     65 H           8.0348   -0.0588    0.0000 H       1  UNL1        0.0266
     66 H           4.7238   -1.4649    0.0000 H       1  UNL1        0.0562
     67 H           2.2522    1.4044    0.0000 H       1  UNL1        0.0230
     68 H           1.4336    1.0902    0.0000 H       1  UNL1        0.0230
     69 H           1.7478    0.2716    0.0000 H       1  UNL1        0.0230
     70 H          10.0097    0.5857    0.0000 H       1  UNL1        0.0233
     71 H          10.6297    1.2057    0.0000 H       1  UNL1        0.0233
     72 H          10.0097    1.8257    0.0000 H       1  UNL1        0.0233
     73 H           2.9553   -1.9950    0.0000 H       1  UNL1        0.0333
     74 H           2.6312   -2.7232    0.0000 H       1  UNL1        0.0333
     75 H           7.1997    3.2669    0.0000 H       1  UNL1        0.0654
     76 H           7.1997    6.0728    0.0000 H       1  UNL1        0.0654
     77 H           8.4728   -0.8363    0.0000 H       1  UNL1        0.0230
     78 H           9.3197   -1.0633    0.0000 H       1  UNL1        0.0230
     79 H           9.5467   -0.2163    0.0000 H       1  UNL1        0.0230
     80 H          10.3197    2.4008    0.0000 H       1  UNL1        0.1543
     81 H           8.8197    3.2669    0.0000 H       1  UNL1        0.0625
     82 H           8.8197    6.0728    0.0000 H       1  UNL1        0.0625
     83 H           6.1231   -2.2850    0.0000 H       1  UNL1        0.0391
     84 H           6.2603   -1.4190    0.0000 H       1  UNL1        0.0391
     85 H           5.3943   -1.2819    0.0000 H       1  UNL1        0.0391
     86 H           4.4376   -3.4306    0.0000 H       1  UNL1        0.0391
     87 H           5.1190   -3.9824    0.0000 H       1  UNL1        0.0391
     88 H           5.6708   -3.3010    0.0000 H       1  UNL1        0.0391
     89 H          11.1297    3.8038    0.0000 H       1  UNL1        0.0782
     90 H          10.3197    5.2068    0.0000 H       1  UNL1        0.0636
     91 H           1.9562   -3.8824    0.0000 H       1  UNL1        0.0620
     92 H           4.7468   -3.5891    0.0000 H       1  UNL1        0.0620
     93 H           2.1256   -5.4936    0.0000 H       1  UNL1        0.0618
     94 H           4.9161   -5.2002    0.0000 H       1  UNL1        0.0618
     95 H           3.6055   -6.1525    0.0000 H       1  UNL1        0.0618
@<TRIPOS>BOND
     1     1    12    1
     2     1    23    1
     3     2    16    2
     4     3    17    2
     5     4    24    2
     6     5    28    2
     7     6    11    1
     8     6    14    1
     9     6    16   am
    10     7    17   am
    11     7    19    1
    12     7    55    1
    13     8    15    1
    14     8    24   am
    15     8    59    1
    16     9    26    1
    17     9    38    1
    18     9    39    1
    19    10    28   am
    20    10    40    1
    21    10    80    1
    22    11    12    1
    23    11    17    1
    24    11    47    1
    25    12    13    1
    26    12    48    1
    27    13    14    1
    28    13    49    1
    29    13    50    1
    30    14    51    1
    31    14    52    1
    32    15    16    1
    33    15    18    1
    34    15    53    1
    35    18    20    1
    36    18    22    1
    37    18    54    1
    38    19    21    1
    39    19    28    1
    40    19    56    1
    41    20    27    1
    42    20    57    1
    43    20    58    1
    44    21    25    1
    45    21    29    1
    46    21    60    1
    47    22    61    1
    48    22    62    1
    49    22    63    1
    50    23    31   ar
    51    23    32   ar
    52    24    26    1
    53    25    33    1
    54    25    64    1
    55    25    65    1
    56    26    30    1
    57    26    66    1
    58    27    67    1
    59    27    68    1
    60    27    69    1
    61    29    70    1
    62    29    71    1
    63    29    72    1
    64    30    37    1
    65    30    73    1
    66    30    74    1
    67    31    34   ar
    68    31    75    1
    69    32    35   ar
    70    32    76    1
    71    33    77    1
    72    33    78    1
    73    33    79    1
    74    34    36   ar
    75    34    81    1
    76    35    36   ar
    77    35    82    1
    78    36    41    1
    79    37    42   ar
    80    37    43   ar
    81    38    86    1
    82    38    87    1
    83    38    88    1
    84    39    83    1
    85    39    84    1
    86    39    85    1
    87    40    41    2
    88    40    89    1
    89    41    90    1
    90    42    44   ar
    91    42    91    1
    92    43    45   ar
    93    43    92    1
    94    44    46   ar
    95    44    93    1
    96    45    46   ar
    97    45    94    1
    98    46    95    1
