@<TRIPOS>MOLECULE
IMPHY014217
 38 39 0 0 0
SMALL
GASTEIGER

@<TRIPOS>ATOM
      1 O           2.0000    0.7327    0.0000 O.2     1  UNL1       -0.2960
      2 C           6.3301   -0.7673    0.0000 C.3     1  UNL1       -0.0253
      3 C           6.3301    0.2327    0.0000 C.3     1  UNL1       -0.0142
      4 C           5.4641   -1.2673    0.0000 C.3     1  UNL1       -0.0465
      5 C           5.4641    0.7327    0.0000 C.3     1  UNL1       -0.0391
      6 C           7.2241   -1.3020    0.0000 C.3     1  UNL1       -0.0436
      7 C           4.5981    0.2327    0.0000 C.3     1  UNL1       -0.0128
      8 C           4.5981   -0.7673    0.0000 C.3     1  UNL1       -0.0456
      9 C           7.2241    0.7674    0.0000 C.2     1  UNL1       -0.0729
     10 C           6.3301   -1.7673    0.0000 C.3     1  UNL1       -0.0590
     11 C           8.1301   -0.7881    0.0000 C.3     1  UNL1       -0.0340
     12 C           8.1301    0.2535    0.0000 C.2     1  UNL1       -0.0847
     13 C           3.7320    0.7327    0.0000 C.2     1  UNL1       -0.0122
     14 C           7.2125    1.7673    0.0000 C.3     1  UNL1       -0.0435
     15 C           2.8660    0.2327    0.0000 C.2     1  UNL1        0.1460
     16 C           3.7320    1.7327    0.0000 C.2     1  UNL1       -0.0922
     17 H           6.3236    1.0827    0.0000 H       1  UNL1        0.0351
     18 H           5.0656   -1.7422    0.0000 H       1  UNL1        0.0271
     19 H           5.8626   -1.7422    0.0000 H       1  UNL1        0.0271
     20 H           5.8626    1.2076    0.0000 H       1  UNL1        0.0277
     21 H           5.0656    1.2076    0.0000 H       1  UNL1        0.0277
     22 H           6.8195   -1.7718    0.0000 H       1  UNL1        0.0274
     23 H           7.6177   -1.7810    0.0000 H       1  UNL1        0.0274
     24 H           4.5981    0.8527    0.0000 H       1  UNL1        0.0350
     25 H           3.9875   -0.6596    0.0000 H       1  UNL1        0.0271
     26 H           4.3860   -1.3499    0.0000 H       1  UNL1        0.0271
     27 H           5.7101   -1.7673    0.0000 H       1  UNL1        0.0235
     28 H           6.3301   -2.3873    0.0000 H       1  UNL1        0.0235
     29 H           6.9501   -1.7673    0.0000 H       1  UNL1        0.0235
     30 H           8.3392   -1.3718    0.0000 H       1  UNL1        0.0308
     31 H           8.7410   -0.6820    0.0000 H       1  UNL1        0.0308
     32 H           8.6659    0.5656    0.0000 H       1  UNL1        0.0572
     33 H           7.8325    1.7745    0.0000 H       1  UNL1        0.0274
     34 H           7.2053    2.3873    0.0000 H       1  UNL1        0.0274
     35 H           6.5926    1.7601    0.0000 H       1  UNL1        0.0274
     36 H           2.8660   -0.3873    0.0000 H       1  UNL1        0.1078
     37 H           4.2690    2.0427    0.0000 H       1  UNL1        0.0539
     38 H           3.1951    2.0427    0.0000 H       1  UNL1        0.0539
@<TRIPOS>BOND
     1     1    15    2
     2     2     3    1
     3     2     4    1
     4     2     6    1
     5     2    10    1
     6     3     5    1
     7     3     9    1
     8     3    17    1
     9     4     8    1
    10     4    18    1
    11     4    19    1
    12     5     7    1
    13     5    20    1
    14     5    21    1
    15     6    11    1
    16     6    22    1
    17     6    23    1
    18     7     8    1
    19     7    13    1
    20     7    24    1
    21     8    25    1
    22     8    26    1
    23     9    12    2
    24     9    14    1
    25    10    27    1
    26    10    28    1
    27    10    29    1
    28    11    12    1
    29    11    30    1
    30    11    31    1
    31    12    32    1
    32    13    15    1
    33    13    16    2
    34    14    33    1
    35    14    34    1
    36    14    35    1
    37    15    36    1
    38    16    37    1
    39    16    38    1
