@<TRIPOS>MOLECULE
IMPHY006186
 53 54 0 0 0
SMALL
GASTEIGER

@<TRIPOS>ATOM
      1 O           2.5369    1.5000    0.0000 O.3     1  UNL1       -0.5063
      2 O           6.1198    0.8264    0.0000 O.3     1  UNL1       -0.5063
      3 C           5.1350    3.0000    0.0000 C.3     1  UNL1       -0.0096
      4 C           4.2690    2.5000    0.0000 C.3     1  UNL1        0.0158
      5 C           5.1350    4.0000    0.0000 C.3     1  UNL1       -0.0420
      6 C           4.2690    4.5000    0.0000 C.3     1  UNL1       -0.0314
      7 C           3.4030    3.0000    0.0000 C.2     1  UNL1       -0.0768
      8 C           4.2690    1.5000    0.0000 C.ar    1  UNL1        0.0427
      9 C           3.4030    4.0000    0.0000 C.2     1  UNL1       -0.0759
     10 C           6.1198    3.1736    0.0000 C.2     1  UNL1       -0.0757
     11 C           3.4030    1.0000    0.0000 C.ar    1  UNL1        0.1243
     12 C           5.1350    1.0000    0.0000 C.ar    1  UNL1        0.1243
     13 C           2.5369    4.5000    0.0000 C.3     1  UNL1       -0.0438
     14 C           6.4618    4.1133    0.0000 C.3     1  UNL1       -0.0437
     15 C           4.2690   -0.5000    0.0000 C.ar    1  UNL1       -0.0405
     16 C           3.4030    0.0000    0.0000 C.ar    1  UNL1       -0.0165
     17 C           5.1350    0.0000    0.0000 C.ar    1  UNL1       -0.0165
     18 C           4.2690   -1.5000    0.0000 C.3     1  UNL1       -0.0275
     19 C           6.7626    2.4076    0.0000 C.2     1  UNL1       -0.0994
     20 C           3.4030   -2.0000    0.0000 C.3     1  UNL1       -0.0491
     21 C           3.4030   -3.0000    0.0000 C.3     1  UNL1       -0.0530
     22 C           2.5369   -3.5000    0.0000 C.3     1  UNL1       -0.0559
     23 C           2.5369   -4.5000    0.0000 C.3     1  UNL1       -0.0653
     24 H           5.3471    2.4174    0.0000 H       1  UNL1        0.0354
     25 H           5.0051    2.0750    0.0000 H       1  UNL1        0.0399
     26 H           5.7456    3.8923    0.0000 H       1  UNL1        0.0274
     27 H           5.3471    4.5826    0.0000 H       1  UNL1        0.0274
     28 H           4.6675    4.9750    0.0000 H       1  UNL1        0.0310
     29 H           3.8705    4.9750    0.0000 H       1  UNL1        0.0310
     30 H           2.8660    2.6900    0.0000 H       1  UNL1        0.0578
     31 H           2.8469    5.0369    0.0000 H       1  UNL1        0.0274
     32 H           2.0000    4.8100    0.0000 H       1  UNL1        0.0274
     33 H           2.2269    3.9631    0.0000 H       1  UNL1        0.0274
     34 H           7.0444    3.9013    0.0000 H       1  UNL1        0.0274
     35 H           6.6739    4.6960    0.0000 H       1  UNL1        0.0274
     36 H           5.8792    4.3254    0.0000 H       1  UNL1        0.0274
     37 H           2.8660   -0.3100    0.0000 H       1  UNL1        0.0657
     38 H           5.6720   -0.3100    0.0000 H       1  UNL1        0.0657
     39 H           4.4810   -2.0826    0.0000 H       1  UNL1        0.0313
     40 H           4.8796   -1.3923    0.0000 H       1  UNL1        0.0313
     41 H           6.5506    1.8250    0.0000 H       1  UNL1        0.0534
     42 H           7.3732    2.5153    0.0000 H       1  UNL1        0.0534
     43 H           3.1909   -1.4174    0.0000 H       1  UNL1        0.0268
     44 H           2.7924   -2.1077    0.0000 H       1  UNL1        0.0268
     45 H           3.6150   -3.5826    0.0000 H       1  UNL1        0.0265
     46 H           4.0135   -2.8923    0.0000 H       1  UNL1        0.0265
     47 H           2.0000    1.1900    0.0000 H       1  UNL1        0.2921
     48 H           6.3319    0.2437    0.0000 H       1  UNL1        0.2921
     49 H           2.3249   -2.9174    0.0000 H       1  UNL1        0.0263
     50 H           1.9264   -3.6077    0.0000 H       1  UNL1        0.0263
     51 H           1.9169   -4.5000    0.0000 H       1  UNL1        0.0230
     52 H           2.5369   -5.1200    0.0000 H       1  UNL1        0.0230
     53 H           3.1569   -4.5000    0.0000 H       1  UNL1        0.0230
@<TRIPOS>BOND
     1     1    11    1
     2     1    47    1
     3     2    12    1
     4     2    48    1
     5     3     4    1
     6     3     5    1
     7     3    10    1
     8     3    24    1
     9     4     7    1
    10     4     8    1
    11     4    25    1
    12     5     6    1
    13     5    26    1
    14     5    27    1
    15     6     9    1
    16     6    28    1
    17     6    29    1
    18     7     9    2
    19     7    30    1
    20     8    11   ar
    21     8    12   ar
    22     9    13    1
    23    10    14    1
    24    10    19    2
    25    11    16   ar
    26    12    17   ar
    27    13    31    1
    28    13    32    1
    29    13    33    1
    30    14    34    1
    31    14    35    1
    32    14    36    1
    33    15    16   ar
    34    15    17   ar
    35    15    18    1
    36    16    37    1
    37    17    38    1
    38    18    20    1
    39    18    39    1
    40    18    40    1
    41    19    41    1
    42    19    42    1
    43    20    21    1
    44    20    43    1
    45    20    44    1
    46    21    22    1
    47    21    45    1
    48    21    46    1
    49    22    23    1
    50    22    49    1
    51    22    50    1
    52    23    51    1
    53    23    52    1
    54    23    53    1
