@<TRIPOS>MOLECULE
IMPHY016836
 26 26 0 0 0
SMALL
GASTEIGER

@<TRIPOS>ATOM
      1 O           2.0000   -1.5094    0.0000 O.2     1  UNL1       -0.2924
      2 C           4.2601   -2.7694    0.0000 C.3     1  UNL1       -0.0243
      3 C           4.5691   -1.8184    0.0000 C.2     1  UNL1       -0.0654
      4 C           3.2601   -2.7694    0.0000 C.3     1  UNL1        0.0138
      5 C           3.7601   -1.2306    0.0000 C.2     1  UNL1       -0.0023
      6 C           2.9511   -1.8184    0.0000 C.2     1  UNL1        0.1598
      7 C           3.7601   -0.2306    0.0000 C.3     1  UNL1       -0.0059
      8 C           5.5202   -1.5094    0.0000 C.3     1  UNL1       -0.0431
      9 C           4.6261    0.2694    0.0000 C.2     1  UNL1       -0.0796
     10 C           4.6261    1.2694    0.0000 C.2     1  UNL1       -0.0659
     11 C           3.7601    1.7694    0.0000 C.2     1  UNL1       -0.0692
     12 C           3.7601    2.7694    0.0000 C.2     1  UNL1       -0.0987
     13 H           4.1953   -3.3860    0.0000 H       1  UNL1        0.0314
     14 H           4.8665   -2.8983    0.0000 H       1  UNL1        0.0314
     15 H           2.6536   -2.8983    0.0000 H       1  UNL1        0.0348
     16 H           3.3249   -3.3860    0.0000 H       1  UNL1        0.0348
     17 H           3.5480    0.3520    0.0000 H       1  UNL1        0.0357
     18 H           3.1495   -0.3382    0.0000 H       1  UNL1        0.0357
     19 H           5.7117   -2.0990    0.0000 H       1  UNL1        0.0275
     20 H           6.1098   -1.3178    0.0000 H       1  UNL1        0.0275
     21 H           5.3286   -0.9197    0.0000 H       1  UNL1        0.0275
     22 H           5.1630   -0.0406    0.0000 H       1  UNL1        0.0575
     23 H           5.1630    1.5794    0.0000 H       1  UNL1        0.0614
     24 H           3.2231    1.4594    0.0000 H       1  UNL1        0.0612
     25 H           4.2970    3.0794    0.0000 H       1  UNL1        0.0535
     26 H           3.2231    3.0794    0.0000 H       1  UNL1        0.0535
@<TRIPOS>BOND
     1     1     6    2
     2     2     3    1
     3     2     4    1
     4     2    13    1
     5     2    14    1
     6     3     5    2
     7     3     8    1
     8     4     6    1
     9     4    15    1
    10     4    16    1
    11     5     6    1
    12     5     7    1
    13     7     9    1
    14     7    17    1
    15     7    18    1
    16     8    19    1
    17     8    20    1
    18     8    21    1
    19     9    10    2
    20     9    22    1
    21    10    11    1
    22    10    23    1
    23    11    12    2
    24    11    24    1
    25    12    25    1
    26    12    26    1
