@<TRIPOS>MOLECULE
IMPHY001593
 41 43 0 0 0
SMALL
GASTEIGER

@<TRIPOS>ATOM
      1 O           4.8936    0.7701    0.0000 O.3     1  UNL1       -0.4844
      2 O           2.3100   -0.0346    0.0000 O.3     1  UNL1       -0.3855
      3 O           7.5878    2.5346    0.0000 O.3     1  UNL1       -0.4577
      4 O           6.7058   -2.0346    0.0000 O.3     1  UNL1       -0.4947
      5 O           5.8181    2.4968    0.0000 O.2     1  UNL1       -0.2448
      6 C           4.3100   -0.0346    0.0000 C.3     1  UNL1        0.1324
      7 C           4.8936   -0.8394    0.0000 C.3     1  UNL1        0.0192
      8 C           3.3100   -0.0346    0.0000 C.3     1  UNL1        0.0974
      9 C           5.8398   -0.5346    0.0000 C.ar    1  UNL1        0.0403
     10 C           5.8398    0.4654    0.0000 C.ar    1  UNL1        0.1420
     11 C           6.7058    0.9654    0.0000 C.ar    1  UNL1        0.1043
     12 C           7.5719    0.4654    0.0000 C.ar    1  UNL1       -0.0229
     13 C           6.7058   -1.0346    0.0000 C.ar    1  UNL1        0.1272
     14 C           8.4819    0.9722    0.0000 C.3     1  UNL1        0.0104
     15 C           3.3100   -1.0346    0.0000 C.3     1  UNL1       -0.0328
     16 C           3.3100    0.9654    0.0000 C.3     1  UNL1       -0.0328
     17 C           8.4899    2.0138    0.0000 C.3     1  UNL1        0.1046
     18 C           7.5719   -0.5346    0.0000 C.ar    1  UNL1       -0.0154
     19 C           6.6898    2.0069    0.0000 C.2     1  UNL1        0.3433
     20 C           9.3579    2.5105    0.0000 C.3     1  UNL1       -0.0274
     21 C           7.5719   -2.5346    0.0000 C.3     1  UNL1        0.0788
     22 H           3.9238    0.7226    0.0000 H       1  UNL1        0.0765
     23 H           4.3562   -1.1486    0.0000 H       1  UNL1        0.0352
     24 H           5.1446   -1.4063    0.0000 H       1  UNL1        0.0352
     25 H           8.6864    0.3869    0.0000 H       1  UNL1        0.0349
     26 H           9.0935    1.0736    0.0000 H       1  UNL1        0.0349
     27 H           2.6900   -1.0346    0.0000 H       1  UNL1        0.0258
     28 H           3.3100   -1.6546    0.0000 H       1  UNL1        0.0258
     29 H           3.9300   -1.0346    0.0000 H       1  UNL1        0.0258
     30 H           3.9300    0.9654    0.0000 H       1  UNL1        0.0258
     31 H           3.3100    1.5854    0.0000 H       1  UNL1        0.0258
     32 H           2.6900    0.9654    0.0000 H       1  UNL1        0.0258
     33 H           8.4911    2.6338    0.0000 H       1  UNL1        0.0734
     34 H           8.1088   -0.8446    0.0000 H       1  UNL1        0.0657
     35 H           2.0000   -0.5716    0.0000 H       1  UNL1        0.2103
     36 H           9.6658    1.9724    0.0000 H       1  UNL1        0.0265
     37 H           9.8960    2.8184    0.0000 H       1  UNL1        0.0265
     38 H           9.0499    3.0486    0.0000 H       1  UNL1        0.0265
     39 H           7.2619   -3.0716    0.0000 H       1  UNL1        0.0660
     40 H           8.1088   -2.8446    0.0000 H       1  UNL1        0.0660
     41 H           7.8819   -1.9977    0.0000 H       1  UNL1        0.0660
@<TRIPOS>BOND
     1     1     6    1
     2     1    10    1
     3     2     8    1
     4     2    35    1
     5     3    17    1
     6     3    19    1
     7     4    13    1
     8     4    21    1
     9     5    19    2
    10     6     7    1
    11     6     8    1
    12     6    22    1
    13     7     9    1
    14     7    23    1
    15     7    24    1
    16     8    15    1
    17     8    16    1
    18     9    10   ar
    19     9    13   ar
    20    10    11   ar
    21    11    12   ar
    22    11    19    1
    23    12    14    1
    24    12    18   ar
    25    13    18   ar
    26    14    17    1
    27    14    25    1
    28    14    26    1
    29    15    27    1
    30    15    28    1
    31    15    29    1
    32    16    30    1
    33    16    31    1
    34    16    32    1
    35    17    20    1
    36    17    33    1
    37    18    34    1
    38    20    36    1
    39    20    37    1
    40    20    38    1
    41    21    39    1
    42    21    40    1
    43    21    41    1
