@<TRIPOS>MOLECULE
IMPHY003349
 47 50 0 0 0
SMALL
GASTEIGER

@<TRIPOS>ATOM
      1 O           8.6793   -0.4324    0.0000 O.3     1  UNL1       -0.4797
      2 O           6.8671   -1.6276    0.0000 O.3     1  UNL1       -0.4914
      3 O          12.4300   -1.2307    0.0000 O.3     1  UNL1       -0.4526
      4 O          13.2347    0.1632    0.0000 O.3     1  UNL1       -0.4526
      5 O           2.5369    0.8724    0.0000 O.3     1  UNL1       -0.3950
      6 C           8.6793    1.1771    0.0000 C.3     1  UNL1        0.0262
      7 C           9.2629    0.3724    0.0000 C.3     1  UNL1        0.1321
      8 C           7.7331    0.8724    0.0000 C.ar    1  UNL1        0.0049
      9 C           7.7331   -0.1276    0.0000 C.ar    1  UNL1        0.1664
     10 C          10.2629    0.3724    0.0000 C.ar    1  UNL1       -0.0031
     11 C           8.9900    2.1276    0.0000 C.3     1  UNL1       -0.0546
     12 C           6.8671    1.3724    0.0000 C.ar    1  UNL1       -0.0513
     13 C           6.0010    0.8724    0.0000 C.ar    1  UNL1       -0.0433
     14 C           6.8671   -0.6276    0.0000 C.ar    1  UNL1        0.1621
     15 C           6.0010   -0.1276    0.0000 C.ar    1  UNL1       -0.0131
     16 C           5.1350    1.3724    0.0000 C.3     1  UNL1       -0.0255
     17 C          10.7629   -0.4937    0.0000 C.ar    1  UNL1       -0.0095
     18 C          10.7629    1.2384    0.0000 C.ar    1  UNL1       -0.0514
     19 C          11.7629   -0.4937    0.0000 C.ar    1  UNL1        0.1666
     20 C           4.2690    0.8724    0.0000 C.3     1  UNL1       -0.0257
     21 C          11.7629    1.2384    0.0000 C.ar    1  UNL1       -0.0158
     22 C          12.2629    0.3724    0.0000 C.ar    1  UNL1        0.1662
     23 C           3.4030    1.3724    0.0000 C.3     1  UNL1        0.0445
     24 C          13.3378   -0.8256    0.0000 C.3     1  UNL1        0.2332
     25 C           6.0010   -2.1276    0.0000 C.3     1  UNL1        0.0790
     26 H           8.2418    1.6165    0.0000 H       1  UNL1        0.0387
     27 H           9.5446   -0.1799    0.0000 H       1  UNL1        0.0790
     28 H           9.5793    1.9350    0.0000 H       1  UNL1        0.0237
     29 H           9.1826    2.7170    0.0000 H       1  UNL1        0.0237
     30 H           8.4006    2.3202    0.0000 H       1  UNL1        0.0237
     31 H           6.8671    1.9924    0.0000 H       1  UNL1        0.0624
     32 H           5.4641   -0.4376    0.0000 H       1  UNL1        0.0658
     33 H           5.5335    1.8473    0.0000 H       1  UNL1        0.0314
     34 H           4.7365    1.8473    0.0000 H       1  UNL1        0.0314
     35 H          10.4529   -1.0306    0.0000 H       1  UNL1        0.0659
     36 H          10.4529    1.7753    0.0000 H       1  UNL1        0.0623
     37 H           3.8705    0.3974    0.0000 H       1  UNL1        0.0290
     38 H           4.6675    0.3974    0.0000 H       1  UNL1        0.0290
     39 H          12.0729    1.7753    0.0000 H       1  UNL1        0.0655
     40 H           3.8015    1.8473    0.0000 H       1  UNL1        0.0557
     41 H           3.0044    1.8473    0.0000 H       1  UNL1        0.0557
     42 H          13.5295   -1.4151    0.0000 H       1  UNL1        0.1166
     43 H          13.9443   -0.6968    0.0000 H       1  UNL1        0.1166
     44 H           5.6910   -1.5907    0.0000 H       1  UNL1        0.0660
     45 H           5.4641   -2.4376    0.0000 H       1  UNL1        0.0660
     46 H           6.3110   -2.6646    0.0000 H       1  UNL1        0.0660
     47 H           2.0000    1.1824    0.0000 H       1  UNL1        0.2094
@<TRIPOS>BOND
     1     1     7    1
     2     1     9    1
     3     2    14    1
     4     2    25    1
     5     3    19    1
     6     3    24    1
     7     4    22    1
     8     4    24    1
     9     5    23    1
    10     5    47    1
    11     6     7    1
    12     6     8    1
    13     6    11    1
    14     6    26    1
    15     7    10    1
    16     7    27    1
    17     8     9   ar
    18     8    12   ar
    19     9    14   ar
    20    10    17   ar
    21    10    18   ar
    22    11    28    1
    23    11    29    1
    24    11    30    1
    25    12    13   ar
    26    12    31    1
    27    13    15   ar
    28    13    16    1
    29    14    15   ar
    30    15    32    1
    31    16    20    1
    32    16    33    1
    33    16    34    1
    34    17    19   ar
    35    17    35    1
    36    18    21   ar
    37    18    36    1
    38    19    22   ar
    39    20    23    1
    40    20    37    1
    41    20    38    1
    42    21    22   ar
    43    21    39    1
    44    23    40    1
    45    23    41    1
    46    24    42    1
    47    24    43    1
    48    25    44    1
    49    25    45    1
    50    25    46    1
