@<TRIPOS>MOLECULE
IMPHY013562
 86 85 0 0 0
SMALL
GASTEIGER

@<TRIPOS>ATOM
      1 C           8.9282    0.0000    0.0000 C.3     1  UNL1       -0.0349
      2 C           9.7942    0.5000    0.0000 C.3     1  UNL1       -0.0479
      3 C           8.0622   -0.5000    0.0000 C.3     1  UNL1       -0.0479
      4 C          10.6603    0.0000    0.0000 C.3     1  UNL1       -0.0526
      5 C           7.1962   -0.0000    0.0000 C.3     1  UNL1       -0.0526
      6 C           8.4282    0.8660    0.0000 C.3     1  UNL1       -0.0598
      7 C           9.4282   -0.8660    0.0000 C.3     1  UNL1       -0.0598
      8 C          11.5263    0.5000    0.0000 C.3     1  UNL1       -0.0530
      9 C           6.3301   -0.5000    0.0000 C.3     1  UNL1       -0.0530
     10 C          12.3923   -0.0000    0.0000 C.3     1  UNL1       -0.0531
     11 C          13.2583    0.5000    0.0000 C.3     1  UNL1       -0.0531
     12 C           5.4641   -0.0000    0.0000 C.3     1  UNL1       -0.0531
     13 C          14.1244   -0.0000    0.0000 C.3     1  UNL1       -0.0531
     14 C          14.9904    0.5000    0.0000 C.3     1  UNL1       -0.0531
     15 C           4.5981   -0.5000    0.0000 C.3     1  UNL1       -0.0531
     16 C          15.8564   -0.0000    0.0000 C.3     1  UNL1       -0.0531
     17 C          16.7224    0.5000    0.0000 C.3     1  UNL1       -0.0531
     18 C          17.5885   -0.0000    0.0000 C.3     1  UNL1       -0.0531
     19 C           3.7320   -0.0000    0.0000 C.3     1  UNL1       -0.0533
     20 C          18.4545    0.5000    0.0000 C.3     1  UNL1       -0.0531
     21 C          19.3205   -0.0000    0.0000 C.3     1  UNL1       -0.0531
     22 C          20.1865    0.5000    0.0000 C.3     1  UNL1       -0.0531
     23 C           2.8660   -0.5000    0.0000 C.3     1  UNL1       -0.0559
     24 C          21.0526   -0.0000    0.0000 C.3     1  UNL1       -0.0531
     25 C          21.9186    0.5000    0.0000 C.3     1  UNL1       -0.0533
     26 C           2.0000   -0.0000    0.0000 C.3     1  UNL1       -0.0653
     27 C          22.7846   -0.0000    0.0000 C.3     1  UNL1       -0.0559
     28 C          23.6506    0.5000    0.0000 C.3     1  UNL1       -0.0653
     29 H          10.1928    0.9749    0.0000 H       1  UNL1        0.0270
     30 H           9.3957    0.9749    0.0000 H       1  UNL1        0.0270
     31 H           7.6636   -0.9749    0.0000 H       1  UNL1        0.0270
     32 H           8.4607   -0.9749    0.0000 H       1  UNL1        0.0270
     33 H          10.2617   -0.4749    0.0000 H       1  UNL1        0.0265
     34 H          11.0588   -0.4749    0.0000 H       1  UNL1        0.0265
     35 H           7.5947    0.4749    0.0000 H       1  UNL1        0.0265
     36 H           6.7976    0.4749    0.0000 H       1  UNL1        0.0265
     37 H           8.9651    1.1760    0.0000 H       1  UNL1        0.0235
     38 H           8.1182    1.4030    0.0000 H       1  UNL1        0.0235
     39 H           7.8913    0.5560    0.0000 H       1  UNL1        0.0235
     40 H           8.8913   -1.1760    0.0000 H       1  UNL1        0.0235
     41 H           9.7382   -1.4030    0.0000 H       1  UNL1        0.0235
     42 H           9.9651   -0.5560    0.0000 H       1  UNL1        0.0235
     43 H          11.9248    0.9749    0.0000 H       1  UNL1        0.0265
     44 H          11.1278    0.9749    0.0000 H       1  UNL1        0.0265
     45 H           5.9316   -0.9749    0.0000 H       1  UNL1        0.0265
     46 H           6.7287   -0.9749    0.0000 H       1  UNL1        0.0265
     47 H          11.9938   -0.4749    0.0000 H       1  UNL1        0.0265
     48 H          12.7908   -0.4749    0.0000 H       1  UNL1        0.0265
     49 H          13.6569    0.9749    0.0000 H       1  UNL1        0.0265
     50 H          12.8598    0.9749    0.0000 H       1  UNL1        0.0265
     51 H           5.8626    0.4749    0.0000 H       1  UNL1        0.0265
     52 H           5.0656    0.4749    0.0000 H       1  UNL1        0.0265
     53 H          13.7258   -0.4749    0.0000 H       1  UNL1        0.0265
     54 H          14.5229   -0.4749    0.0000 H       1  UNL1        0.0265
     55 H          15.3889    0.9749    0.0000 H       1  UNL1        0.0265
     56 H          14.5919    0.9749    0.0000 H       1  UNL1        0.0265
     57 H           4.1996   -0.9749    0.0000 H       1  UNL1        0.0265
     58 H           4.9966   -0.9749    0.0000 H       1  UNL1        0.0265
     59 H          15.4579   -0.4749    0.0000 H       1  UNL1        0.0265
     60 H          16.2549   -0.4749    0.0000 H       1  UNL1        0.0265
     61 H          17.1210    0.9749    0.0000 H       1  UNL1        0.0265
     62 H          16.3239    0.9749    0.0000 H       1  UNL1        0.0265
     63 H          17.1899   -0.4749    0.0000 H       1  UNL1        0.0265
     64 H          17.9870   -0.4749    0.0000 H       1  UNL1        0.0265
     65 H           4.1306    0.4749    0.0000 H       1  UNL1        0.0265
     66 H           3.3335    0.4749    0.0000 H       1  UNL1        0.0265
     67 H          18.8530    0.9749    0.0000 H       1  UNL1        0.0265
     68 H          18.0560    0.9749    0.0000 H       1  UNL1        0.0265
     69 H          18.9220   -0.4749    0.0000 H       1  UNL1        0.0265
     70 H          19.7190   -0.4749    0.0000 H       1  UNL1        0.0265
     71 H          20.5851    0.9749    0.0000 H       1  UNL1        0.0265
     72 H          19.7880    0.9749    0.0000 H       1  UNL1        0.0265
     73 H           2.4675   -0.9749    0.0000 H       1  UNL1        0.0263
     74 H           3.2646   -0.9749    0.0000 H       1  UNL1        0.0263
     75 H          20.6540   -0.4749    0.0000 H       1  UNL1        0.0265
     76 H          21.4511   -0.4749    0.0000 H       1  UNL1        0.0265
     77 H          22.3171    0.9749    0.0000 H       1  UNL1        0.0265
     78 H          21.5201    0.9749    0.0000 H       1  UNL1        0.0265
     79 H           2.3100    0.5369    0.0000 H       1  UNL1        0.0230
     80 H           1.4631    0.3100    0.0000 H       1  UNL1        0.0230
     81 H           1.6900   -0.5369    0.0000 H       1  UNL1        0.0230
     82 H          22.3861   -0.4749    0.0000 H       1  UNL1        0.0263
     83 H          23.1831   -0.4749    0.0000 H       1  UNL1        0.0263
     84 H          23.9606   -0.0369    0.0000 H       1  UNL1        0.0230
     85 H          24.1876    0.8100    0.0000 H       1  UNL1        0.0230
     86 H          23.3406    1.0369    0.0000 H       1  UNL1        0.0230
@<TRIPOS>BOND
     1     1     2    1
     2     1     3    1
     3     1     6    1
     4     1     7    1
     5     2     4    1
     6     2    29    1
     7     2    30    1
     8     3     5    1
     9     3    31    1
    10     3    32    1
    11     4     8    1
    12     4    33    1
    13     4    34    1
    14     5     9    1
    15     5    35    1
    16     5    36    1
    17     6    37    1
    18     6    38    1
    19     6    39    1
    20     7    40    1
    21     7    41    1
    22     7    42    1
    23     8    10    1
    24     8    43    1
    25     8    44    1
    26     9    12    1
    27     9    45    1
    28     9    46    1
    29    10    11    1
    30    10    47    1
    31    10    48    1
    32    11    13    1
    33    11    49    1
    34    11    50    1
    35    12    15    1
    36    12    51    1
    37    12    52    1
    38    13    14    1
    39    13    53    1
    40    13    54    1
    41    14    16    1
    42    14    55    1
    43    14    56    1
    44    15    19    1
    45    15    57    1
    46    15    58    1
    47    16    17    1
    48    16    59    1
    49    16    60    1
    50    17    18    1
    51    17    61    1
    52    17    62    1
    53    18    20    1
    54    18    63    1
    55    18    64    1
    56    19    23    1
    57    19    65    1
    58    19    66    1
    59    20    21    1
    60    20    67    1
    61    20    68    1
    62    21    22    1
    63    21    69    1
    64    21    70    1
    65    22    24    1
    66    22    71    1
    67    22    72    1
    68    23    26    1
    69    23    73    1
    70    23    74    1
    71    24    25    1
    72    24    75    1
    73    24    76    1
    74    25    27    1
    75    25    77    1
    76    25    78    1
    77    26    79    1
    78    26    80    1
    79    26    81    1
    80    27    28    1
    81    27    82    1
    82    27    83    1
    83    28    84    1
    84    28    85    1
    85    28    86    1
