@<TRIPOS>MOLECULE
IMPHY017524
 29 30 0 0 0
SMALL
GASTEIGER

@<TRIPOS>ATOM
      1 C           3.7320   -0.2673    0.0000 C.3     1  UNL1       -0.0111
      2 C           2.8660   -0.7673    0.0000 C.3     1  UNL1       -0.0439
      3 C           3.7320    0.7327    0.0000 C.2     1  UNL1       -0.0675
      4 C           4.6260   -0.8020    0.0000 C.3     1  UNL1       -0.0436
      5 C           2.0000   -0.2673    0.0000 C.3     1  UNL1       -0.0520
      6 C           2.8660    1.2327    0.0000 C.3     1  UNL1       -0.0312
      7 C           2.0000    0.7327    0.0000 C.3     1  UNL1       -0.0493
      8 C           5.5321   -0.2881    0.0000 C.3     1  UNL1       -0.0488
      9 C           3.7320   -1.2673    0.0000 C.3     1  UNL1       -0.0558
     10 C           5.5321    0.7535    0.0000 C.3     1  UNL1       -0.0345
     11 C           4.6260    1.2673    0.0000 C.2     1  UNL1       -0.0842
     12 H           2.4675   -1.2423    0.0000 H       1  UNL1        0.0274
     13 H           3.2646   -1.2423    0.0000 H       1  UNL1        0.0274
     14 H           4.2214   -1.2718    0.0000 H       1  UNL1        0.0274
     15 H           5.0196   -1.2810    0.0000 H       1  UNL1        0.0274
     16 H           1.3894   -0.1597    0.0000 H       1  UNL1        0.0266
     17 H           1.7880   -0.8499    0.0000 H       1  UNL1        0.0266
     18 H           3.2646    1.7076    0.0000 H       1  UNL1        0.0310
     19 H           2.4675    1.7076    0.0000 H       1  UNL1        0.0310
     20 H           1.7880    1.3153    0.0000 H       1  UNL1        0.0268
     21 H           1.3894    0.6250    0.0000 H       1  UNL1        0.0268
     22 H           5.7411   -0.8718    0.0000 H       1  UNL1        0.0268
     23 H           6.1429   -0.1821    0.0000 H       1  UNL1        0.0268
     24 H           3.1120   -1.2673    0.0000 H       1  UNL1        0.0238
     25 H           3.7320   -1.8873    0.0000 H       1  UNL1        0.0238
     26 H           4.3520   -1.2673    0.0000 H       1  UNL1        0.0238
     27 H           6.1429    0.6474    0.0000 H       1  UNL1        0.0307
     28 H           5.7411    1.3372    0.0000 H       1  UNL1        0.0307
     29 H           4.6188    1.8873    0.0000 H       1  UNL1        0.0572
@<TRIPOS>BOND
     1     1     2    1
     2     1     3    1
     3     1     4    1
     4     1     9    1
     5     2     5    1
     6     2    12    1
     7     2    13    1
     8     3     6    1
     9     3    11    2
    10     4     8    1
    11     4    14    1
    12     4    15    1
    13     5     7    1
    14     5    16    1
    15     5    17    1
    16     6     7    1
    17     6    18    1
    18     6    19    1
    19     7    20    1
    20     7    21    1
    21     8    10    1
    22     8    22    1
    23     8    23    1
    24     9    24    1
    25     9    25    1
    26     9    26    1
    27    10    11    1
    28    10    27    1
    29    10    28    1
    30    11    29    1
