@<TRIPOS>MOLECULE
IMPHY016176
 16 16 0 0 0
SMALL
GASTEIGER

@<TRIPOS>ATOM
      1 O           3.7320    1.7500    0.0000 O.2     1  UNL1       -0.2960
      2 C           2.0000   -0.2500    0.0000 C.3     1  UNL1       -0.0212
      3 C           2.0000   -1.2500    0.0000 C.3     1  UNL1       -0.0304
      4 C           2.8660    0.2500    0.0000 C.2     1  UNL1       -0.0079
      5 C           2.8660   -1.7500    0.0000 C.2     1  UNL1       -0.0837
      6 C           3.7320   -0.2500    0.0000 C.2     1  UNL1       -0.0558
      7 C           3.7320   -1.2500    0.0000 C.2     1  UNL1       -0.0653
      8 C           2.8660    1.2500    0.0000 C.2     1  UNL1        0.1463
      9 H           1.7880    0.3326    0.0000 H       1  UNL1        0.0317
     10 H           1.3894   -0.3577    0.0000 H       1  UNL1        0.0317
     11 H           1.3894   -1.1423    0.0000 H       1  UNL1        0.0311
     12 H           1.7880   -1.8326    0.0000 H       1  UNL1        0.0311
     13 H           2.8660   -2.3700    0.0000 H       1  UNL1        0.0572
     14 H           4.2690    0.0600    0.0000 H       1  UNL1        0.0621
     15 H           4.2690   -1.5600    0.0000 H       1  UNL1        0.0615
     16 H           2.3291    1.5600    0.0000 H       1  UNL1        0.1078
@<TRIPOS>BOND
     1     1     8    2
     2     2     3    1
     3     2     4    1
     4     2     9    1
     5     2    10    1
     6     3     5    1
     7     3    11    1
     8     3    12    1
     9     4     6    2
    10     4     8    1
    11     5     7    2
    12     5    13    1
    13     6     7    1
    14     6    14    1
    15     7    15    1
    16     8    16    1
