@<TRIPOS>MOLECULE
IMPHY017621
 39 40 0 0 0
SMALL
GASTEIGER

@<TRIPOS>ATOM
      1 O           2.6420    1.1036    0.0000 O.3     1  UNL1       -0.3346
      2 O           2.6420   -0.0720    0.0000 O.3     1  UNL1       -0.3373
      3 C           3.4511    0.5158    0.0000 C.3     1  UNL1        0.1940
      4 C           4.2601    1.1036    0.0000 C.3     1  UNL1        0.0086
      5 C           2.9511    2.0546    0.0000 C.3     1  UNL1        0.0883
      6 C           3.9511    2.0546    0.0000 C.3     1  UNL1       -0.0151
      7 C           4.2601   -0.0720    0.0000 C.2     1  UNL1       -0.0156
      8 C           2.9511   -1.0230    0.0000 C.3     1  UNL1        0.0844
      9 C           3.9511   -1.0230    0.0000 C.3     1  UNL1        0.0031
     10 C           2.0000    2.3636    0.0000 C.3     1  UNL1       -0.0321
     11 C           2.9511    3.0546    0.0000 C.2     1  UNL1       -0.0599
     12 C           2.3633   -1.8321    0.0000 C.2     1  UNL1       -0.0565
     13 C           5.2111    0.2370    0.0000 C.2     1  UNL1       -0.0943
     14 C           2.7700   -2.7456    0.0000 C.2     1  UNL1       -0.0772
     15 C           3.8171    3.5546    0.0000 C.2     1  UNL1       -0.1000
     16 C           2.1822   -3.5546    0.0000 C.3     1  UNL1       -0.0440
     17 C           3.7645   -2.8501    0.0000 C.3     1  UNL1       -0.0440
     18 H           4.5701    0.5666    0.0000 H       1  UNL1        0.0321
     19 H           4.8265    1.3558    0.0000 H       1  UNL1        0.0321
     20 H           4.5575    2.1835    0.0000 H       1  UNL1        0.0298
     21 H           3.8862    2.6712    0.0000 H       1  UNL1        0.0298
     22 H           2.3387   -0.9261    0.0000 H       1  UNL1        0.0645
     23 H           3.8862   -1.6397    0.0000 H       1  UNL1        0.0340
     24 H           4.5575   -1.1520    0.0000 H       1  UNL1        0.0340
     25 H           2.1916    2.9533    0.0000 H       1  UNL1        0.0260
     26 H           1.4103    2.5552    0.0000 H       1  UNL1        0.0260
     27 H           1.8084    1.7740    0.0000 H       1  UNL1        0.0260
     28 H           2.4141    3.3646    0.0000 H       1  UNL1        0.0594
     29 H           1.7467   -1.7673    0.0000 H       1  UNL1        0.0597
     30 H           5.6719   -0.1778    0.0000 H       1  UNL1        0.0536
     31 H           5.3400    0.8435    0.0000 H       1  UNL1        0.0536
     32 H           4.3540    3.2446    0.0000 H       1  UNL1        0.0533
     33 H           3.8171    4.1746    0.0000 H       1  UNL1        0.0533
     34 H           1.6806   -3.1902    0.0000 H       1  UNL1        0.0274
     35 H           1.8178   -4.0562    0.0000 H       1  UNL1        0.0274
     36 H           2.6838   -3.9191    0.0000 H       1  UNL1        0.0274
     37 H           3.6997   -3.4668    0.0000 H       1  UNL1        0.0274
     38 H           4.3811   -2.9150    0.0000 H       1  UNL1        0.0274
     39 H           3.8293   -2.2335    0.0000 H       1  UNL1        0.0274
@<TRIPOS>BOND
     1     1     3    1
     2     1     5    1
     3     2     3    1
     4     2     8    1
     5     3     4    1
     6     3     7    1
     7     4     6    1
     8     4    18    1
     9     4    19    1
    10     5     6    1
    11     5    10    1
    12     5    11    1
    13     6    20    1
    14     6    21    1
    15     7     9    1
    16     7    13    2
    17     8     9    1
    18     8    12    1
    19     8    22    1
    20     9    23    1
    21     9    24    1
    22    10    25    1
    23    10    26    1
    24    10    27    1
    25    11    15    2
    26    11    28    1
    27    12    14    2
    28    12    29    1
    29    13    30    1
    30    13    31    1
    31    14    16    1
    32    14    17    1
    33    15    32    1
    34    15    33    1
    35    16    34    1
    36    16    35    1
    37    16    36    1
    38    17    37    1
    39    17    38    1
    40    17    39    1
