@<TRIPOS>MOLECULE
IMPHY010240
 62 64 0 0 0
SMALL
GASTEIGER

@<TRIPOS>ATOM
      1 O           5.4506   -1.8672    0.0000 O.3     1  UNL1       -0.4907
      2 O           4.8576   -1.6216    0.0000 O.3     1  UNL1       -0.4907
      3 O           8.7752   -2.0478    0.0000 O.3     1  UNL1       -0.4913
      4 O           2.3791    0.6016    0.0000 O.3     1  UNL1       -0.4913
      5 O           6.8828   -2.8316    0.0000 O.3     1  UNL1       -0.4885
      6 O           3.1630   -1.2908    0.0000 O.3     1  UNL1       -0.4885
      7 C           7.2714    2.0607    0.0000 C.3     1  UNL1       -0.0370
      8 C           6.3476    2.4434    0.0000 C.3     1  UNL1       -0.0370
      9 C           7.6541    1.1368    0.0000 C.3     1  UNL1       -0.0240
     10 C           5.4237    2.0607    0.0000 C.3     1  UNL1       -0.0240
     11 C           7.2714    0.2130    0.0000 C.ar    1  UNL1       -0.0321
     12 C           5.0410    1.1368    0.0000 C.ar    1  UNL1       -0.0321
     13 C           7.9786    2.7678    0.0000 C.3     1  UNL1       -0.0619
     14 C           6.3476    3.4434    0.0000 C.3     1  UNL1       -0.0619
     15 C           6.3476   -0.1697    0.0000 C.ar    1  UNL1        0.0347
     16 C           5.4237    0.2130    0.0000 C.ar    1  UNL1        0.0347
     17 C           8.1075   -0.4083    0.0000 C.ar    1  UNL1       -0.0123
     18 C           4.0105    1.2887    0.0000 C.ar    1  UNL1       -0.0123
     19 C           6.1957   -1.2002    0.0000 C.ar    1  UNL1        0.1732
     20 C           4.8024   -0.6231    0.0000 C.ar    1  UNL1        0.1732
     21 C           7.9795   -1.4420    0.0000 C.ar    1  UNL1        0.1655
     22 C           3.3700    0.4673    0.0000 C.ar    1  UNL1        0.1655
     23 C           7.0172   -1.8407    0.0000 C.ar    1  UNL1        0.2041
     24 C           3.7687   -0.4951    0.0000 C.ar    1  UNL1        0.2041
     25 C           5.6558   -2.8460    0.0000 C.3     1  UNL1        0.0790
     26 C           4.0205   -2.1686    0.0000 C.3     1  UNL1        0.0790
     27 C           9.6976   -1.6615    0.0000 C.3     1  UNL1        0.0790
     28 C           2.0000    1.5269    0.0000 C.3     1  UNL1        0.0790
     29 C           7.6738   -3.4434    0.0000 C.3     1  UNL1        0.0791
     30 C           2.1710   -1.1641    0.0000 C.3     1  UNL1        0.0791
     31 H           7.8795    1.9398    0.0000 H       1  UNL1        0.0304
     32 H           6.8631    2.7879    0.0000 H       1  UNL1        0.0304
     33 H           8.1460    0.7594    0.0000 H       1  UNL1        0.0316
     34 H           8.1460    1.5143    0.0000 H       1  UNL1        0.0316
     35 H           5.3428    2.6754    0.0000 H       1  UNL1        0.0316
     36 H           4.8090    2.1417    0.0000 H       1  UNL1        0.0316
     37 H           8.4170    2.3294    0.0000 H       1  UNL1        0.0233
     38 H           8.4170    3.2062    0.0000 H       1  UNL1        0.0233
     39 H           7.5402    3.2062    0.0000 H       1  UNL1        0.0233
     40 H           6.9676    3.4434    0.0000 H       1  UNL1        0.0233
     41 H           6.3476    4.0634    0.0000 H       1  UNL1        0.0233
     42 H           5.7276    3.4434    0.0000 H       1  UNL1        0.0233
     43 H           8.6775   -0.1644    0.0000 H       1  UNL1        0.0658
     44 H           3.7799    1.8642    0.0000 H       1  UNL1        0.0658
     45 H           5.0490   -2.9732    0.0000 H       1  UNL1        0.0660
     46 H           5.7830   -3.4528    0.0000 H       1  UNL1        0.0660
     47 H           6.2626   -2.7188    0.0000 H       1  UNL1        0.0660
     48 H           3.6813   -1.6496    0.0000 H       1  UNL1        0.0660
     49 H           3.5015   -2.5078    0.0000 H       1  UNL1        0.0660
     50 H           4.3597   -2.6876    0.0000 H       1  UNL1        0.0660
     51 H           9.9371   -2.2334    0.0000 H       1  UNL1        0.0660
     52 H          10.2695   -1.4220    0.0000 H       1  UNL1        0.0660
     53 H           9.4581   -1.0896    0.0000 H       1  UNL1        0.0660
     54 H           2.5737    1.7620    0.0000 H       1  UNL1        0.0660
     55 H           1.7650    2.1007    0.0000 H       1  UNL1        0.0660
     56 H           1.4263    1.2919    0.0000 H       1  UNL1        0.0660
     57 H           7.2945   -3.9338    0.0000 H       1  UNL1        0.0660
     58 H           8.1642   -3.8227    0.0000 H       1  UNL1        0.0660
     59 H           8.0532   -2.9530    0.0000 H       1  UNL1        0.0660
     60 H           2.2496   -0.5491    0.0000 H       1  UNL1        0.0660
     61 H           1.5560   -1.0855    0.0000 H       1  UNL1        0.0660
     62 H           2.0925   -1.7791    0.0000 H       1  UNL1        0.0660
@<TRIPOS>BOND
     1     1    19    1
     2     1    25    1
     3     2    20    1
     4     2    26    1
     5     3    21    1
     6     3    27    1
     7     4    22    1
     8     4    28    1
     9     5    23    1
    10     5    29    1
    11     6    24    1
    12     6    30    1
    13     7     8    1
    14     7     9    1
    15     7    13    1
    16     7    31    1
    17     8    10    1
    18     8    14    1
    19     8    32    1
    20     9    11    1
    21     9    33    1
    22     9    34    1
    23    10    12    1
    24    10    35    1
    25    10    36    1
    26    11    15   ar
    27    11    17   ar
    28    12    16   ar
    29    12    18   ar
    30    13    37    1
    31    13    38    1
    32    13    39    1
    33    14    40    1
    34    14    41    1
    35    14    42    1
    36    15    16    1
    37    15    19   ar
    38    16    20   ar
    39    17    21   ar
    40    17    43    1
    41    18    22   ar
    42    18    44    1
    43    19    23   ar
    44    20    24   ar
    45    21    23   ar
    46    22    24   ar
    47    25    45    1
    48    25    46    1
    49    25    47    1
    50    26    48    1
    51    26    49    1
    52    26    50    1
    53    27    51    1
    54    27    52    1
    55    27    53    1
    56    28    54    1
    57    28    55    1
    58    28    56    1
    59    29    57    1
    60    29    58    1
    61    29    59    1
    62    30    60    1
    63    30    61    1
    64    30    62    1
