@<TRIPOS>MOLECULE
IMPHY017550
 24 25 0 0 0
SMALL
GASTEIGER

@<TRIPOS>ATOM
      1 O           2.2788    0.9139    0.0000 O.3     1  UNL1       -0.3419
      2 O           3.8968    0.9139    0.0000 O.3     1  UNL1       -0.3446
      3 C           2.5878    1.8649    0.0000 C.3     1  UNL1        0.0826
      4 C           3.0878    0.3261    0.0000 C.3     1  UNL1        0.1858
      5 C           3.5878    1.8649    0.0000 C.3     1  UNL1        0.0770
      6 C           3.0878   -0.6739    0.0000 C.ar    1  UNL1        0.0079
      7 C           2.0000    2.6739    0.0000 C.3     1  UNL1       -0.0364
      8 C           2.2218   -1.1739    0.0000 C.ar    1  UNL1       -0.0538
      9 C           3.9538   -1.1739    0.0000 C.ar    1  UNL1       -0.0538
     10 C           2.2218   -2.1739    0.0000 C.ar    1  UNL1       -0.0613
     11 C           3.9538   -2.1739    0.0000 C.ar    1  UNL1       -0.0613
     12 C           3.0878   -2.6739    0.0000 C.ar    1  UNL1       -0.0617
     13 H           1.7482    1.7319    0.0000 H       1  UNL1        0.0617
     14 H           3.8451   -0.0598    0.0000 H       1  UNL1        0.0964
     15 H           4.1942    1.9938    0.0000 H       1  UNL1        0.0587
     16 H           3.5230    2.4815    0.0000 H       1  UNL1        0.0587
     17 H           2.5016    3.0384    0.0000 H       1  UNL1        0.0255
     18 H           1.6356    3.1755    0.0000 H       1  UNL1        0.0255
     19 H           1.4984    2.3095    0.0000 H       1  UNL1        0.0255
     20 H           1.6848   -0.8639    0.0000 H       1  UNL1        0.0622
     21 H           4.4908   -0.8639    0.0000 H       1  UNL1        0.0622
     22 H           1.6848   -2.4839    0.0000 H       1  UNL1        0.0618
     23 H           4.4908   -2.4839    0.0000 H       1  UNL1        0.0618
     24 H           3.0878   -3.2939    0.0000 H       1  UNL1        0.0618
@<TRIPOS>BOND
     1     1     3    1
     2     1     4    1
     3     2     4    1
     4     2     5    1
     5     3     5    1
     6     3     7    1
     7     3    13    1
     8     4     6    1
     9     4    14    1
    10     5    15    1
    11     5    16    1
    12     6     8   ar
    13     6     9   ar
    14     7    17    1
    15     7    18    1
    16     7    19    1
    17     8    10   ar
    18     8    20    1
    19     9    11   ar
    20     9    21    1
    21    10    12   ar
    22    10    22    1
    23    11    12   ar
    24    11    23    1
    25    12    24    1
