@<TRIPOS>MOLECULE
IMPHY008790
 57 59 0 0 0
SMALL
GASTEIGER

@<TRIPOS>ATOM
      1 O           5.8207   -0.6530    0.0000 O.3     1  UNL1       -0.3879
      2 O           4.6208   -0.3169    0.0000 O.3     1  UNL1       -0.4572
      3 O           2.8188   -4.1072    0.0000 O.3     1  UNL1       -0.3875
      4 O           2.9303    0.0601    0.0000 O.2     1  UNL1       -0.2450
      5 O           4.7550    4.2637    0.0000 O.3     1  UNL1       -0.5068
      6 C           5.1931   -2.9125    0.0000 C.3     1  UNL1       -0.0205
      7 C           5.1881   -1.9125    0.0000 C.3     1  UNL1        0.0310
      8 C           6.1328   -1.6031    0.0000 C.3     1  UNL1        0.0751
      9 C           6.1408   -3.2125    0.0000 C.3     1  UNL1       -0.0445
     10 C           6.7204   -2.4049    0.0000 C.3     1  UNL1       -0.0229
     11 C           4.4032   -1.2929    0.0000 C.3     1  UNL1        0.1130
     12 C           4.4144   -3.5399    0.0000 C.3     1  UNL1       -0.0171
     13 C           6.9399   -1.0126    0.0000 C.3     1  UNL1       -0.0174
     14 C           5.1981   -3.9125    0.0000 C.3     1  UNL1       -0.0590
     15 C           3.4384   -3.3222    0.0000 C.3     1  UNL1        0.0766
     16 C           3.4294   -1.5203    0.0000 C.3     1  UNL1        0.0081
     17 C           3.0000   -2.4234    0.0000 C.2     1  UNL1       -0.0450
     18 C           7.8548   -1.4164    0.0000 C.3     1  UNL1       -0.0600
     19 C           6.8321   -0.0185    0.0000 C.3     1  UNL1       -0.0600
     20 C           2.0000   -2.4284    0.0000 C.2     1  UNL1       -0.0969
     21 C           3.8844    0.3596    0.0000 C.2     1  UNL1        0.3395
     22 C           4.1021    1.3356    0.0000 C.ar    1  UNL1        0.0592
     23 C           5.0562    1.6352    0.0000 C.ar    1  UNL1       -0.0443
     24 C           3.3656    2.0122    0.0000 C.ar    1  UNL1       -0.0443
     25 C           5.2738    2.6112    0.0000 C.ar    1  UNL1       -0.0194
     26 C           3.5833    2.9882    0.0000 C.ar    1  UNL1       -0.0194
     27 C           4.5374    3.2877    0.0000 C.ar    1  UNL1        0.1169
     28 H           5.3368   -1.0756    0.0000 H       1  UNL1        0.0370
     29 H           5.8926   -3.7806    0.0000 H       1  UNL1        0.0272
     30 H           6.6797   -3.5190    0.0000 H       1  UNL1        0.0272
     31 H           7.1833   -2.8173    0.0000 H       1  UNL1        0.0293
     32 H           7.1792   -1.9878    0.0000 H       1  UNL1        0.0293
     33 H           3.9626   -0.8567    0.0000 H       1  UNL1        0.0741
     34 H           4.1482   -4.0998    0.0000 H       1  UNL1        0.0299
     35 H           4.9010   -3.9240    0.0000 H       1  UNL1        0.0299
     36 H           7.4403   -0.6466    0.0000 H       1  UNL1        0.0323
     37 H           4.5781   -3.9156    0.0000 H       1  UNL1        0.0235
     38 H           5.2012   -4.5325    0.0000 H       1  UNL1        0.0235
     39 H           5.8181   -3.9094    0.0000 H       1  UNL1        0.0235
     40 H           2.8219   -3.2559    0.0000 H       1  UNL1        0.0640
     41 H           3.4263   -0.9003    0.0000 H       1  UNL1        0.0347
     42 H           2.8242   -1.3854    0.0000 H       1  UNL1        0.0347
     43 H           6.2340   -0.1909    0.0000 H       1  UNL1        0.2102
     44 H           7.6044   -1.9836    0.0000 H       1  UNL1        0.0233
     45 H           8.4220   -1.6667    0.0000 H       1  UNL1        0.0233
     46 H           8.1051   -0.8492    0.0000 H       1  UNL1        0.0233
     47 H           7.4485    0.0484    0.0000 H       1  UNL1        0.0233
     48 H           6.7653    0.5979    0.0000 H       1  UNL1        0.0233
     49 H           6.2157   -0.0853    0.0000 H       1  UNL1        0.0233
     50 H           3.0482   -4.6832    0.0000 H       1  UNL1        0.2102
     51 H           1.6873   -1.8930    0.0000 H       1  UNL1        0.0535
     52 H           1.6927   -2.9669    0.0000 H       1  UNL1        0.0535
     53 H           5.5127    1.2157    0.0000 H       1  UNL1        0.0627
     54 H           2.7741    1.8264    0.0000 H       1  UNL1        0.0627
     55 H           5.8653    2.7969    0.0000 H       1  UNL1        0.0654
     56 H           3.1267    3.4076    0.0000 H       1  UNL1        0.0654
     57 H           4.2984    4.6832    0.0000 H       1  UNL1        0.2921
@<TRIPOS>BOND
     1     8     1    1
     2     1    43    1
     3    11     2    1
     4     2    21    1
     5    15     3    1
     6     3    50    1
     7     4    21    2
     8     5    27    1
     9     5    57    1
    10     6     7    1
    11     6     9    1
    12     6    12    1
    13     6    14    1
    14     7     8    1
    15     7    11    1
    16     7    28    1
    17     8    10    1
    18     8    13    1
    19     9    10    1
    20     9    29    1
    21     9    30    1
    22    10    31    1
    23    10    32    1
    24    11    16    1
    25    11    33    1
    26    12    15    1
    27    12    34    1
    28    12    35    1
    29    13    18    1
    30    13    19    1
    31    13    36    1
    32    14    37    1
    33    14    38    1
    34    14    39    1
    35    15    17    1
    36    15    40    1
    37    16    17    1
    38    16    41    1
    39    16    42    1
    40    17    20    2
    41    18    44    1
    42    18    45    1
    43    18    46    1
    44    19    47    1
    45    19    48    1
    46    19    49    1
    47    20    51    1
    48    20    52    1
    49    21    22    1
    50    22    23   ar
    51    22    24   ar
    52    23    25   ar
    53    23    53    1
    54    24    26   ar
    55    24    54    1
    56    25    27   ar
    57    25    55    1
    58    26    27   ar
    59    26    56    1
