@<TRIPOS>MOLECULE
IMPHY007098
 56 56 0 0 0
SMALL
GASTEIGER

@<TRIPOS>ATOM
      1 O           2.5369   -3.3100    0.0000 O.2     1  UNL1       -0.5029
      2 O           6.0010   -5.3100    0.0000 O.2     1  UNL1       -0.4911
      3 O           6.0010   -3.3100    0.0000 O.2     1  UNL1       -0.2836
      4 O           2.5369   -5.3100    0.0000 O.2     1  UNL1       -0.2839
      5 C           6.0010   -0.3100    0.0000 C.3     1  UNL1       -0.0530
      6 C           5.1350   -0.8100    0.0000 C.3     1  UNL1       -0.0528
      7 C           6.0010    0.6900    0.0000 C.3     1  UNL1       -0.0528
      8 C           5.1350   -1.8100    0.0000 C.3     1  UNL1       -0.0488
      9 C           6.8671    1.1900    0.0000 C.3     1  UNL1       -0.0496
     10 C           4.2690   -2.3100    0.0000 C.3     1  UNL1       -0.0203
     11 C           6.8671    2.1900    0.0000 C.3     1  UNL1       -0.0348
     12 C           4.2690   -3.3100    0.0000 C.2     1  UNL1        0.0481
     13 C           3.4030   -3.8100    0.0000 C.2     1  UNL1        0.1707
     14 C           7.7331    2.6900    0.0000 C.2     1  UNL1       -0.0876
     15 C           5.1350   -3.8100    0.0000 C.2     1  UNL1        0.2271
     16 C           5.1350   -4.8100    0.0000 C.2     1  UNL1        0.1707
     17 C           3.4030   -4.8100    0.0000 C.2     1  UNL1        0.2240
     18 C           7.7331    3.6900    0.0000 C.2     1  UNL1       -0.0842
     19 C           4.2690   -5.3100    0.0000 C.2     1  UNL1        0.0343
     20 C           6.8671    4.1900    0.0000 C.3     1  UNL1       -0.0165
     21 C           6.8671    5.1900    0.0000 C.2     1  UNL1       -0.0839
     22 C           6.0010   -6.3100    0.0000 C.3     1  UNL1        0.0790
     23 C           6.0010    5.6900    0.0000 C.2     1  UNL1       -0.0839
     24 C           5.1350    5.1900    0.0000 C.3     1  UNL1       -0.0168
     25 C           4.2690    5.6900    0.0000 C.2     1  UNL1       -0.0874
     26 C           3.4030    5.1900    0.0000 C.2     1  UNL1       -0.1023
     27 H           6.2131   -0.8926    0.0000 H       1  UNL1        0.0265
     28 H           6.6116   -0.2023    0.0000 H       1  UNL1        0.0265
     29 H           4.9230   -0.2274    0.0000 H       1  UNL1        0.0265
     30 H           4.5244   -0.9177    0.0000 H       1  UNL1        0.0265
     31 H           5.7890    1.2726    0.0000 H       1  UNL1        0.0265
     32 H           5.3905    0.5823    0.0000 H       1  UNL1        0.0265
     33 H           5.3471   -2.3926    0.0000 H       1  UNL1        0.0268
     34 H           5.7456   -1.7023    0.0000 H       1  UNL1        0.0268
     35 H           7.0791    0.6074    0.0000 H       1  UNL1        0.0268
     36 H           7.4776    1.2977    0.0000 H       1  UNL1        0.0268
     37 H           4.0569   -1.7274    0.0000 H       1  UNL1        0.0316
     38 H           3.6584   -2.4177    0.0000 H       1  UNL1        0.0316
     39 H           6.6550    2.7726    0.0000 H       1  UNL1        0.0307
     40 H           6.2565    2.0823    0.0000 H       1  UNL1        0.0307
     41 H           8.2700    2.3800    0.0000 H       1  UNL1        0.0569
     42 H           8.2700    4.0000    0.0000 H       1  UNL1        0.0572
     43 H           4.2690   -5.9300    0.0000 H       1  UNL1        0.0695
     44 H           6.2565    4.2977    0.0000 H       1  UNL1        0.0350
     45 H           6.6550    3.6074    0.0000 H       1  UNL1        0.0350
     46 H           2.0000   -3.6200    0.0000 H       1  UNL1        0.2923
     47 H           7.4040    5.5000    0.0000 H       1  UNL1        0.0572
     48 H           5.3810   -6.3100    0.0000 H       1  UNL1        0.0660
     49 H           6.0010   -6.9300    0.0000 H       1  UNL1        0.0660
     50 H           6.6210   -6.3100    0.0000 H       1  UNL1        0.0660
     51 H           6.0010    6.3100    0.0000 H       1  UNL1        0.0572
     52 H           4.7365    4.7150    0.0000 H       1  UNL1        0.0350
     53 H           5.5335    4.7150    0.0000 H       1  UNL1        0.0350
     54 H           4.2690    6.3100    0.0000 H       1  UNL1        0.0569
     55 H           2.8660    5.5000    0.0000 H       1  UNL1        0.0532
     56 H           3.4030    4.5700    0.0000 H       1  UNL1        0.0532
@<TRIPOS>BOND
     1     1    13    1
     2     1    46    1
     3     2    16    1
     4     2    22    1
     5     3    15    2
     6     4    17    2
     7     5     6    1
     8     5     7    1
     9     5    27    1
    10     5    28    1
    11     6     8    1
    12     6    29    1
    13     6    30    1
    14     7     9    1
    15     7    31    1
    16     7    32    1
    17     8    10    1
    18     8    33    1
    19     8    34    1
    20     9    11    1
    21     9    35    1
    22     9    36    1
    23    10    12    1
    24    10    37    1
    25    10    38    1
    26    11    14    1
    27    11    39    1
    28    11    40    1
    29    12    13    2
    30    12    15    1
    31    13    17    1
    32    14    18    2
    33    14    41    1
    34    15    16    1
    35    16    19    2
    36    17    19    1
    37    18    20    1
    38    18    42    1
    39    19    43    1
    40    20    21    1
    41    20    44    1
    42    20    45    1
    43    21    23    2
    44    21    47    1
    45    22    48    1
    46    22    49    1
    47    22    50    1
    48    23    24    1
    49    23    51    1
    50    24    25    1
    51    24    52    1
    52    24    53    1
    53    25    26    2
    54    25    54    1
    55    26    55    1
    56    26    56    1
