@<TRIPOS>MOLECULE
IMPHY000848
 70 75 0 0 0
SMALL
GASTEIGER

@<TRIPOS>ATOM
      1 O           5.5954   -2.2515    0.0000 O.3     1  UNL1       -0.3553
      2 N           4.6359   -2.7520    0.0000 N.3     1  UNL1       -0.2885
      3 C           6.6628   -0.0167    0.0000 C.3     1  UNL1       -0.0233
      4 C           7.5288   -0.5167    0.0000 C.3     1  UNL1       -0.0296
      5 C           5.9258   -0.6838    0.0000 C.3     1  UNL1       -0.0025
      6 C           6.3309   -1.5916    0.0000 C.3     1  UNL1        0.0649
      7 C           8.3948   -0.0167    0.0000 C.3     1  UNL1       -0.0306
      8 C           7.3196   -1.4885    0.0000 C.3     1  UNL1       -0.0226
      9 C           8.3948    0.9833    0.0000 C.3     1  UNL1       -0.0282
     10 C           4.9434   -0.7905    0.0000 C.3     1  UNL1        0.0046
     11 C           6.6628    0.9833    0.0000 C.3     1  UNL1       -0.0467
     12 C           4.7396   -1.7574    0.0000 C.3     1  UNL1        0.1239
     13 C           7.5288    1.4833    0.0000 C.3     1  UNL1       -0.0486
     14 C           9.2888    1.5180    0.0000 C.3     1  UNL1       -0.0040
     15 C           5.7968    0.4833    0.0000 C.3     1  UNL1       -0.0590
     16 C           9.2888   -0.5514    0.0000 C.3     1  UNL1       -0.0308
     17 C           3.9300   -1.1704    0.0000 C.3     1  UNL1       -0.0095
     18 C           4.2723   -0.0491    0.0000 C.3     1  UNL1       -0.0582
     19 C          10.1949    1.0041    0.0000 C.2     1  UNL1       -0.0454
     20 C           9.2637    2.6027    0.0000 C.3     1  UNL1       -0.0399
     21 C          10.1949   -0.0375    0.0000 C.2     1  UNL1       -0.0800
     22 C           8.4189    2.0113    0.0000 C.3     1  UNL1       -0.0553
     23 C           3.0169   -1.5779    0.0000 C.3     1  UNL1       -0.0454
     24 C           3.7227   -3.1596    0.0000 C.3     1  UNL1        0.0010
     25 C           2.9132   -2.5725    0.0000 C.3     1  UNL1       -0.0311
     26 C          10.1949    3.1596    0.0000 C.3     1  UNL1       -0.0337
     27 C          11.1386    1.5394    0.0000 C.2     1  UNL1       -0.0623
     28 C          11.1386    2.6243    0.0000 C.2     1  UNL1       -0.0837
     29 C           2.0000   -2.9800    0.0000 C.3     1  UNL1       -0.0613
     30 H           8.2158   -1.0172    0.0000 H       1  UNL1        0.0310
     31 H           5.5777    0.0917    0.0000 H       1  UNL1        0.0335
     32 H           6.6756   -2.3685    0.0000 H       1  UNL1        0.0600
     33 H           8.3883   -0.8667    0.0000 H       1  UNL1        0.0310
     34 H           7.3187   -2.1085    0.0000 H       1  UNL1        0.0293
     35 H           7.9361   -1.5546    0.0000 H       1  UNL1        0.0293
     36 H           9.1342    0.5640    0.0000 H       1  UNL1        0.0312
     37 H           4.1228   -1.0123    0.0000 H       1  UNL1        0.0343
     38 H           6.4507    1.5659    0.0000 H       1  UNL1        0.0271
     39 H           6.0522    0.8756    0.0000 H       1  UNL1        0.0271
     40 H           7.9274    1.9582    0.0000 H       1  UNL1        0.0268
     41 H           7.1303    1.9582    0.0000 H       1  UNL1        0.0268
     42 H           6.1068    1.0202    0.0000 H       1  UNL1        0.0235
     43 H           5.2598    0.7933    0.0000 H       1  UNL1        0.0235
     44 H           5.4868   -0.0536    0.0000 H       1  UNL1        0.0235
     45 H           8.8842   -1.0212    0.0000 H       1  UNL1        0.0310
     46 H           9.6824   -1.0304    0.0000 H       1  UNL1        0.0310
     47 H           4.3757   -0.7393    0.0000 H       1  UNL1        0.0306
     48 H           3.5829   -0.6567    0.0000 H       1  UNL1        0.0306
     49 H           4.7320    0.3670    0.0000 H       1  UNL1        0.0234
     50 H           3.8562    0.4106    0.0000 H       1  UNL1        0.0234
     51 H           3.8126   -0.4651    0.0000 H       1  UNL1        0.0234
     52 H           5.1378   -3.1160    0.0000 H       1  UNL1        0.1246
     53 H           9.0412    3.1814    0.0000 H       1  UNL1        0.0277
     54 H           8.6555    2.4825    0.0000 H       1  UNL1        0.0277
     55 H          10.7306   -0.3496    0.0000 H       1  UNL1        0.0575
     56 H           8.7248    2.5506    0.0000 H       1  UNL1        0.0238
     57 H           7.8796    2.3171    0.0000 H       1  UNL1        0.0238
     58 H           8.1131    1.4720    0.0000 H       1  UNL1        0.0238
     59 H           2.8664   -0.9764    0.0000 H       1  UNL1        0.0270
     60 H           2.3984   -1.6217    0.0000 H       1  UNL1        0.0270
     61 H           3.2771   -3.5906    0.0000 H       1  UNL1        0.0427
     62 H           4.0699   -3.6733    0.0000 H       1  UNL1        0.0427
     63 H           2.2251   -2.0735    0.0000 H       1  UNL1        0.0310
     64 H          10.5885    3.6386    0.0000 H       1  UNL1        0.0308
     65 H           9.7903    3.6294    0.0000 H       1  UNL1        0.0308
     66 H          11.6744    1.2273    0.0000 H       1  UNL1        0.0617
     67 H          11.6744    2.9364    0.0000 H       1  UNL1        0.0572
     68 H           1.7473   -2.4138    0.0000 H       1  UNL1        0.0233
     69 H           1.4338   -3.2327    0.0000 H       1  UNL1        0.0233
     70 H           2.2527   -3.5462    0.0000 H       1  UNL1        0.0233
@<TRIPOS>BOND
     1     1     6    1
     2     1    12    1
     3     2    12    1
     4     2    24    1
     5     2    52    1
     6     3     4    1
     7     3     5    1
     8     3    11    1
     9     3    15    1
    10     4     7    1
    11     4     8    1
    12     4    30    1
    13     5     6    1
    14     5    10    1
    15     5    31    1
    16     6     8    1
    17     6    32    1
    18     7     9    1
    19     7    16    1
    20     7    33    1
    21     8    34    1
    22     8    35    1
    23     9    13    1
    24     9    14    1
    25     9    36    1
    26    10    12    1
    27    10    18    1
    28    10    37    1
    29    11    13    1
    30    11    38    1
    31    11    39    1
    32    12    17    1
    33    13    40    1
    34    13    41    1
    35    14    19    1
    36    14    20    1
    37    14    22    1
    38    15    42    1
    39    15    43    1
    40    15    44    1
    41    16    21    1
    42    16    45    1
    43    16    46    1
    44    17    23    1
    45    17    47    1
    46    17    48    1
    47    18    49    1
    48    18    50    1
    49    18    51    1
    50    19    21    2
    51    19    27    1
    52    20    26    1
    53    20    53    1
    54    20    54    1
    55    21    55    1
    56    22    56    1
    57    22    57    1
    58    22    58    1
    59    23    25    1
    60    23    59    1
    61    23    60    1
    62    24    25    1
    63    24    61    1
    64    24    62    1
    65    25    29    1
    66    25    63    1
    67    26    28    1
    68    26    64    1
    69    26    65    1
    70    27    28    2
    71    27    66    1
    72    28    67    1
    73    29    68    1
    74    29    69    1
    75    29    70    1
