@<TRIPOS>MOLECULE
IMPHY000165
 74 73 0 0 0
SMALL
GASTEIGER

@<TRIPOS>ATOM
      1 O           2.5369    0.7500    0.0000 O.3     1  UNL1       -0.4806
      2 O           3.4030   -0.7500    0.0000 O.2     1  UNL1       -0.2510
      3 C          13.7953    0.2500    0.0000 C.3     1  UNL1       -0.0531
      4 C          12.9292    0.7500    0.0000 C.3     1  UNL1       -0.0531
      5 C          14.6613    0.7500    0.0000 C.3     1  UNL1       -0.0531
      6 C          12.0632    0.2500    0.0000 C.3     1  UNL1       -0.0531
      7 C          15.5273    0.2500    0.0000 C.3     1  UNL1       -0.0531
      8 C          11.1972    0.7500    0.0000 C.3     1  UNL1       -0.0531
      9 C          16.3933    0.7500    0.0000 C.3     1  UNL1       -0.0531
     10 C          10.3312    0.2500    0.0000 C.3     1  UNL1       -0.0531
     11 C          17.2594    0.2500    0.0000 C.3     1  UNL1       -0.0531
     12 C           9.4651    0.7500    0.0000 C.3     1  UNL1       -0.0531
     13 C          18.1254    0.7500    0.0000 C.3     1  UNL1       -0.0531
     14 C           8.5991    0.2500    0.0000 C.3     1  UNL1       -0.0531
     15 C          18.9914    0.2500    0.0000 C.3     1  UNL1       -0.0531
     16 C           7.7331    0.7500    0.0000 C.3     1  UNL1       -0.0531
     17 C          19.8574    0.7500    0.0000 C.3     1  UNL1       -0.0531
     18 C           6.8671    0.2500    0.0000 C.3     1  UNL1       -0.0530
     19 C          20.7235    0.2500    0.0000 C.3     1  UNL1       -0.0531
     20 C           6.0010    0.7500    0.0000 C.3     1  UNL1       -0.0526
     21 C          21.5895    0.7500    0.0000 C.3     1  UNL1       -0.0533
     22 C           5.1350    0.2500    0.0000 C.3     1  UNL1       -0.0430
     23 C          22.4555    0.2500    0.0000 C.3     1  UNL1       -0.0559
     24 C           4.2690    0.7500    0.0000 C.3     1  UNL1        0.0448
     25 C          23.3215    0.7500    0.0000 C.3     1  UNL1       -0.0653
     26 C           3.4030    0.2500    0.0000 C.2     1  UNL1        0.3047
     27 H          13.3967   -0.2249    0.0000 H       1  UNL1        0.0265
     28 H          14.1938   -0.2249    0.0000 H       1  UNL1        0.0265
     29 H          13.3278    1.2250    0.0000 H       1  UNL1        0.0265
     30 H          12.5307    1.2250    0.0000 H       1  UNL1        0.0265
     31 H          15.0598    1.2250    0.0000 H       1  UNL1        0.0265
     32 H          14.2628    1.2250    0.0000 H       1  UNL1        0.0265
     33 H          11.6647   -0.2249    0.0000 H       1  UNL1        0.0265
     34 H          12.4617   -0.2249    0.0000 H       1  UNL1        0.0265
     35 H          15.1288   -0.2249    0.0000 H       1  UNL1        0.0265
     36 H          15.9258   -0.2249    0.0000 H       1  UNL1        0.0265
     37 H          11.5957    1.2250    0.0000 H       1  UNL1        0.0265
     38 H          10.7987    1.2250    0.0000 H       1  UNL1        0.0265
     39 H          16.7919    1.2250    0.0000 H       1  UNL1        0.0265
     40 H          15.9948    1.2250    0.0000 H       1  UNL1        0.0265
     41 H           9.9326   -0.2249    0.0000 H       1  UNL1        0.0265
     42 H          10.7297   -0.2249    0.0000 H       1  UNL1        0.0265
     43 H          16.8608   -0.2249    0.0000 H       1  UNL1        0.0265
     44 H          17.6579   -0.2249    0.0000 H       1  UNL1        0.0265
     45 H           9.8637    1.2250    0.0000 H       1  UNL1        0.0265
     46 H           9.0666    1.2250    0.0000 H       1  UNL1        0.0265
     47 H          18.5239    1.2250    0.0000 H       1  UNL1        0.0265
     48 H          17.7269    1.2250    0.0000 H       1  UNL1        0.0265
     49 H           8.2006   -0.2249    0.0000 H       1  UNL1        0.0265
     50 H           8.9976   -0.2249    0.0000 H       1  UNL1        0.0265
     51 H          18.5929   -0.2249    0.0000 H       1  UNL1        0.0265
     52 H          19.3899   -0.2249    0.0000 H       1  UNL1        0.0265
     53 H           8.1316    1.2250    0.0000 H       1  UNL1        0.0265
     54 H           7.3346    1.2250    0.0000 H       1  UNL1        0.0265
     55 H          20.2560    1.2250    0.0000 H       1  UNL1        0.0265
     56 H          19.4589    1.2250    0.0000 H       1  UNL1        0.0265
     57 H           6.4685   -0.2249    0.0000 H       1  UNL1        0.0265
     58 H           7.2656   -0.2249    0.0000 H       1  UNL1        0.0265
     59 H          20.3249   -0.2249    0.0000 H       1  UNL1        0.0265
     60 H          21.1220   -0.2249    0.0000 H       1  UNL1        0.0265
     61 H           6.3996    1.2250    0.0000 H       1  UNL1        0.0265
     62 H           5.6025    1.2250    0.0000 H       1  UNL1        0.0265
     63 H          21.9880    1.2250    0.0000 H       1  UNL1        0.0265
     64 H          21.1910    1.2250    0.0000 H       1  UNL1        0.0265
     65 H           4.7365   -0.2249    0.0000 H       1  UNL1        0.0270
     66 H           5.5335   -0.2249    0.0000 H       1  UNL1        0.0270
     67 H          22.0570   -0.2249    0.0000 H       1  UNL1        0.0263
     68 H          22.8540   -0.2249    0.0000 H       1  UNL1        0.0263
     69 H           4.6675    1.2250    0.0000 H       1  UNL1        0.0377
     70 H           3.8705    1.2250    0.0000 H       1  UNL1        0.0377
     71 H          23.6315    0.2131    0.0000 H       1  UNL1        0.0230
     72 H          23.8585    1.0600    0.0000 H       1  UNL1        0.0230
     73 H          23.0115    1.2869    0.0000 H       1  UNL1        0.0230
     74 H           2.0000    0.4400    0.0000 H       1  UNL1        0.2951
@<TRIPOS>BOND
     1     1    26    1
     2     1    74    1
     3     2    26    2
     4     3     4    1
     5     3     5    1
     6     3    27    1
     7     3    28    1
     8     4     6    1
     9     4    29    1
    10     4    30    1
    11     5     7    1
    12     5    31    1
    13     5    32    1
    14     6     8    1
    15     6    33    1
    16     6    34    1
    17     7     9    1
    18     7    35    1
    19     7    36    1
    20     8    10    1
    21     8    37    1
    22     8    38    1
    23     9    11    1
    24     9    39    1
    25     9    40    1
    26    10    12    1
    27    10    41    1
    28    10    42    1
    29    11    13    1
    30    11    43    1
    31    11    44    1
    32    12    14    1
    33    12    45    1
    34    12    46    1
    35    13    15    1
    36    13    47    1
    37    13    48    1
    38    14    16    1
    39    14    49    1
    40    14    50    1
    41    15    17    1
    42    15    51    1
    43    15    52    1
    44    16    18    1
    45    16    53    1
    46    16    54    1
    47    17    19    1
    48    17    55    1
    49    17    56    1
    50    18    20    1
    51    18    57    1
    52    18    58    1
    53    19    21    1
    54    19    59    1
    55    19    60    1
    56    20    22    1
    57    20    61    1
    58    20    62    1
    59    21    23    1
    60    21    63    1
    61    21    64    1
    62    22    24    1
    63    22    65    1
    64    22    66    1
    65    23    25    1
    66    23    67    1
    67    23    68    1
    68    24    26    1
    69    24    69    1
    70    24    70    1
    71    25    71    1
    72    25    72    1
    73    25    73    1
