@<TRIPOS>MOLECULE
IMPHY015142
 69 68 0 0 0
SMALL
GASTEIGER

@<TRIPOS>ATOM
      1 C           7.1962    0.2500    0.0000 C.3     1  UNL1       -0.0531
      2 C           6.3301   -0.2500    0.0000 C.3     1  UNL1       -0.0531
      3 C           8.0622   -0.2500    0.0000 C.3     1  UNL1       -0.0530
      4 C           5.4641    0.2500    0.0000 C.3     1  UNL1       -0.0531
      5 C           8.9282    0.2500    0.0000 C.3     1  UNL1       -0.0528
      6 C          16.7224   -0.2500    0.0000 C.3     1  UNL1       -0.0531
      7 C          15.8564    0.2500    0.0000 C.3     1  UNL1       -0.0530
      8 C          17.5885    0.2500    0.0000 C.3     1  UNL1       -0.0531
      9 C          14.9904   -0.2500    0.0000 C.3     1  UNL1       -0.0528
     10 C           4.5981   -0.2500    0.0000 C.3     1  UNL1       -0.0531
     11 C           9.7942   -0.2500    0.0000 C.3     1  UNL1       -0.0496
     12 C          18.4545   -0.2500    0.0000 C.3     1  UNL1       -0.0531
     13 C          14.1244    0.2500    0.0000 C.3     1  UNL1       -0.0496
     14 C           3.7320    0.2500    0.0000 C.3     1  UNL1       -0.0533
     15 C          19.3205    0.2500    0.0000 C.3     1  UNL1       -0.0533
     16 C          10.6603    0.2500    0.0000 C.3     1  UNL1       -0.0348
     17 C          13.2583   -0.2500    0.0000 C.3     1  UNL1       -0.0348
     18 C           2.8660   -0.2500    0.0000 C.3     1  UNL1       -0.0559
     19 C          20.1865   -0.2500    0.0000 C.3     1  UNL1       -0.0559
     20 C          11.5263   -0.2500    0.0000 C.2     1  UNL1       -0.0879
     21 C          12.3923    0.2500    0.0000 C.2     1  UNL1       -0.0879
     22 C           2.0000    0.2500    0.0000 C.3     1  UNL1       -0.0653
     23 C          21.0526    0.2500    0.0000 C.3     1  UNL1       -0.0653
     24 H           7.5947    0.7249    0.0000 H       1  UNL1        0.0265
     25 H           6.7976    0.7249    0.0000 H       1  UNL1        0.0265
     26 H           5.9316   -0.7249    0.0000 H       1  UNL1        0.0265
     27 H           6.7287   -0.7249    0.0000 H       1  UNL1        0.0265
     28 H           7.6636   -0.7249    0.0000 H       1  UNL1        0.0265
     29 H           8.4607   -0.7249    0.0000 H       1  UNL1        0.0265
     30 H           5.8626    0.7249    0.0000 H       1  UNL1        0.0265
     31 H           5.0656    0.7249    0.0000 H       1  UNL1        0.0265
     32 H          16.3239   -0.7249    0.0000 H       1  UNL1        0.0265
     33 H          17.1210   -0.7249    0.0000 H       1  UNL1        0.0265
     34 H           9.3267    0.7249    0.0000 H       1  UNL1        0.0265
     35 H           8.5297    0.7249    0.0000 H       1  UNL1        0.0265
     36 H          16.2549    0.7249    0.0000 H       1  UNL1        0.0265
     37 H          15.4579    0.7249    0.0000 H       1  UNL1        0.0265
     38 H          17.9870    0.7249    0.0000 H       1  UNL1        0.0265
     39 H          17.1899    0.7249    0.0000 H       1  UNL1        0.0265
     40 H          14.5919   -0.7249    0.0000 H       1  UNL1        0.0265
     41 H          15.3889   -0.7249    0.0000 H       1  UNL1        0.0265
     42 H           4.1996   -0.7249    0.0000 H       1  UNL1        0.0265
     43 H           4.9966   -0.7249    0.0000 H       1  UNL1        0.0265
     44 H           9.3957   -0.7249    0.0000 H       1  UNL1        0.0268
     45 H          10.1928   -0.7249    0.0000 H       1  UNL1        0.0268
     46 H          18.0560   -0.7249    0.0000 H       1  UNL1        0.0265
     47 H          18.8530   -0.7249    0.0000 H       1  UNL1        0.0265
     48 H          14.5229    0.7249    0.0000 H       1  UNL1        0.0268
     49 H          13.7258    0.7249    0.0000 H       1  UNL1        0.0268
     50 H           4.1306    0.7249    0.0000 H       1  UNL1        0.0265
     51 H           3.3335    0.7249    0.0000 H       1  UNL1        0.0265
     52 H          19.7190    0.7249    0.0000 H       1  UNL1        0.0265
     53 H          18.9220    0.7249    0.0000 H       1  UNL1        0.0265
     54 H          11.0588    0.7249    0.0000 H       1  UNL1        0.0307
     55 H          10.2617    0.7249    0.0000 H       1  UNL1        0.0307
     56 H          12.8598   -0.7249    0.0000 H       1  UNL1        0.0307
     57 H          13.6569   -0.7249    0.0000 H       1  UNL1        0.0307
     58 H           2.4675   -0.7249    0.0000 H       1  UNL1        0.0263
     59 H           3.2646   -0.7249    0.0000 H       1  UNL1        0.0263
     60 H          19.7880   -0.7249    0.0000 H       1  UNL1        0.0263
     61 H          20.5851   -0.7249    0.0000 H       1  UNL1        0.0263
     62 H          11.5263   -0.8700    0.0000 H       1  UNL1        0.0569
     63 H          12.3923    0.8700    0.0000 H       1  UNL1        0.0569
     64 H           2.3100    0.7869    0.0000 H       1  UNL1        0.0230
     65 H           1.4631    0.5600    0.0000 H       1  UNL1        0.0230
     66 H           1.6900   -0.2869    0.0000 H       1  UNL1        0.0230
     67 H          21.3626   -0.2869    0.0000 H       1  UNL1        0.0230
     68 H          21.5895    0.5600    0.0000 H       1  UNL1        0.0230
     69 H          20.7426    0.7869    0.0000 H       1  UNL1        0.0230
@<TRIPOS>BOND
     1     1     2    1
     2     1     3    1
     3     1    24    1
     4     1    25    1
     5     2     4    1
     6     2    26    1
     7     2    27    1
     8     3     5    1
     9     3    28    1
    10     3    29    1
    11     4    10    1
    12     4    30    1
    13     4    31    1
    14     5    11    1
    15     5    34    1
    16     5    35    1
    17     6     7    1
    18     6     8    1
    19     6    32    1
    20     6    33    1
    21     7     9    1
    22     7    36    1
    23     7    37    1
    24     8    12    1
    25     8    38    1
    26     8    39    1
    27     9    13    1
    28     9    40    1
    29     9    41    1
    30    10    14    1
    31    10    42    1
    32    10    43    1
    33    11    16    1
    34    11    44    1
    35    11    45    1
    36    12    15    1
    37    12    46    1
    38    12    47    1
    39    13    17    1
    40    13    48    1
    41    13    49    1
    42    14    18    1
    43    14    50    1
    44    14    51    1
    45    15    19    1
    46    15    52    1
    47    15    53    1
    48    16    20    1
    49    16    54    1
    50    16    55    1
    51    17    21    1
    52    17    56    1
    53    17    57    1
    54    18    22    1
    55    18    58    1
    56    18    59    1
    57    19    23    1
    58    19    60    1
    59    19    61    1
    60    20    21    2
    61    20    62    1
    62    21    63    1
    63    22    64    1
    64    22    65    1
    65    22    66    1
    66    23    67    1
    67    23    68    1
    68    23    69    1
