@<TRIPOS>MOLECULE
IMPHY007765
 84 89 0 0 0
SMALL
GASTEIGER

@<TRIPOS>ATOM
      1 O          10.0701   -0.5019    0.0000 O.2     1  UNL1       -0.2916
      2 O          13.9950   -3.1153    0.0000 O.3     1  UNL1       -0.5064
      3 O           9.6648    0.1168    0.0000 O.3     1  UNL1       -0.5063
      4 O           9.6648   -3.3473    0.0000 O.3     1  UNL1       -0.5063
      5 O          10.3708    1.2038    0.0000 O.3     1  UNL1       -0.5057
      6 O          15.7270   -0.1153    0.0000 O.3     1  UNL1       -0.5066
      7 O           6.0812   -2.4200    0.0000 O.2     1  UNL1       -0.4547
      8 O          13.6260    2.3886    0.0000 O.3     1  UNL1       -0.5064
      9 O           2.5369   -2.6153    0.0000 O.3     1  UNL1       -0.5066
     10 C          11.3969   -1.6153    0.0000 C.3     1  UNL1        0.0399
     11 C          12.2629   -2.1153    0.0000 C.3     1  UNL1        0.0019
     12 C          10.5309   -2.1153    0.0000 C.3     1  UNL1        0.0198
     13 C          12.2629   -3.1153    0.0000 C.3     1  UNL1       -0.0244
     14 C          11.3969   -3.6153    0.0000 C.2     1  UNL1       -0.0753
     15 C          10.5309   -3.1153    0.0000 C.2     1  UNL1       -0.0767
     16 C          13.1289   -1.6153    0.0000 C.ar    1  UNL1       -0.0016
     17 C           9.6648   -1.6153    0.0000 C.ar    1  UNL1        0.0429
     18 C          11.0549   -0.6756    0.0000 C.2     1  UNL1        0.1712
     19 C          11.3969   -4.6153    0.0000 C.3     1  UNL1       -0.0437
     20 C          11.6977    0.0905    0.0000 C.ar    1  UNL1        0.0596
     21 C          13.9950   -2.1153    0.0000 C.ar    1  UNL1        0.1238
     22 C          13.1289   -0.6153    0.0000 C.ar    1  UNL1       -0.0514
     23 C           9.1648   -0.7493    0.0000 C.ar    1  UNL1        0.1248
     24 C           9.1648   -2.4813    0.0000 C.ar    1  UNL1        0.1248
     25 C           8.1648   -0.7493    0.0000 C.ar    1  UNL1       -0.0090
     26 C           8.1648   -2.4813    0.0000 C.ar    1  UNL1       -0.0090
     27 C          11.3556    1.0301    0.0000 C.ar    1  UNL1        0.1342
     28 C          14.8610   -1.6153    0.0000 C.ar    1  UNL1        0.0216
     29 C          13.9950   -0.1153    0.0000 C.ar    1  UNL1       -0.0197
     30 C           7.6648   -1.6153    0.0000 C.ar    1  UNL1        0.0242
     31 C          12.6825   -0.0832    0.0000 C.ar    1  UNL1       -0.0443
     32 C          14.8610   -0.6153    0.0000 C.ar    1  UNL1        0.1203
     33 C          11.9984    1.7962    0.0000 C.ar    1  UNL1        0.0398
     34 C          13.3253    0.6829    0.0000 C.ar    1  UNL1       -0.0190
     35 C           6.6648   -1.6153    0.0000 C.ar    1  UNL1        0.1365
     36 C          12.9832    1.6226    0.0000 C.ar    1  UNL1        0.1238
     37 C          11.6564    2.7359    0.0000 C.3     1  UNL1       -0.0023
     38 C           6.0812   -0.8105    0.0000 C.ar    1  UNL1       -0.0081
     39 C           5.1350   -1.1153    0.0000 C.ar    1  UNL1        0.0210
     40 C          10.6716    2.9095    0.0000 C.2     1  UNL1       -0.0807
     41 C           5.1350   -2.1153    0.0000 C.ar    1  UNL1        0.1391
     42 C          10.3296    3.8492    0.0000 C.2     1  UNL1       -0.0793
     43 C           4.2690   -0.6153    0.0000 C.ar    1  UNL1       -0.0475
     44 C           4.2690   -2.6153    0.0000 C.ar    1  UNL1        0.0227
     45 C           3.4030   -2.1153    0.0000 C.ar    1  UNL1        0.1204
     46 C           3.4030   -1.1153    0.0000 C.ar    1  UNL1       -0.0194
     47 C          10.9724    4.6153    0.0000 C.3     1  UNL1       -0.0440
     48 C           9.3448    4.0229    0.0000 C.3     1  UNL1       -0.0440
     49 H          11.8718   -1.2168    0.0000 H       1  UNL1        0.0396
     50 H          12.7999   -2.4253    0.0000 H       1  UNL1        0.0360
     51 H           9.9939   -2.4253    0.0000 H       1  UNL1        0.0401
     52 H          12.4750   -3.6979    0.0000 H       1  UNL1        0.0316
     53 H          12.8735   -3.0076    0.0000 H       1  UNL1        0.0316
     54 H           9.9939   -3.4253    0.0000 H       1  UNL1        0.0578
     55 H          10.7769   -4.6153    0.0000 H       1  UNL1        0.0274
     56 H          11.3969   -5.2353    0.0000 H       1  UNL1        0.0274
     57 H          12.0169   -4.6153    0.0000 H       1  UNL1        0.0274
     58 H          12.5920   -0.3053    0.0000 H       1  UNL1        0.0623
     59 H           7.8548   -0.2123    0.0000 H       1  UNL1        0.0661
     60 H           7.8548   -3.0182    0.0000 H       1  UNL1        0.0661
     61 H          15.3979   -1.9253    0.0000 H       1  UNL1        0.0691
     62 H          13.9950    0.5047    0.0000 H       1  UNL1        0.0654
     63 H          12.8945   -0.6658    0.0000 H       1  UNL1        0.0627
     64 H          14.5319   -3.4253    0.0000 H       1  UNL1        0.2921
     65 H           9.3548    0.6537    0.0000 H       1  UNL1        0.2921
     66 H           9.3548   -3.8843    0.0000 H       1  UNL1        0.2921
     67 H          13.9358    0.5752    0.0000 H       1  UNL1        0.0654
     68 H          12.2670    2.8436    0.0000 H       1  UNL1        0.0358
     69 H          11.6564    3.3559    0.0000 H       1  UNL1        0.0358
     70 H          10.1588    1.7864    0.0000 H       1  UNL1        0.2922
     71 H           6.2738   -0.2212    0.0000 H       1  UNL1        0.0661
     72 H          16.2640   -0.4253    0.0000 H       1  UNL1        0.2921
     73 H          10.2731    2.4346    0.0000 H       1  UNL1        0.0575
     74 H          14.2366    2.2809    0.0000 H       1  UNL1        0.2921
     75 H           4.2690    0.0047    0.0000 H       1  UNL1        0.0626
     76 H           4.2690   -3.2353    0.0000 H       1  UNL1        0.0691
     77 H           2.8660   -0.8053    0.0000 H       1  UNL1        0.0654
     78 H          11.4473    4.2168    0.0000 H       1  UNL1        0.0274
     79 H          11.3709    5.0902    0.0000 H       1  UNL1        0.0274
     80 H          10.4974    5.0138    0.0000 H       1  UNL1        0.0274
     81 H           9.4524    4.6335    0.0000 H       1  UNL1        0.0274
     82 H           8.7342    4.1305    0.0000 H       1  UNL1        0.0274
     83 H           9.2371    3.4123    0.0000 H       1  UNL1        0.0274
     84 H           2.0000   -2.3053    0.0000 H       1  UNL1        0.2921
@<TRIPOS>BOND
     1     1    18    2
     2     2    21    1
     3     2    64    1
     4     3    23    1
     5     3    65    1
     6     4    24    1
     7     4    66    1
     8     5    27    1
     9     5    70    1
    10     6    32    1
    11     6    72    1
    12     7    35   ar
    13     7    41   ar
    14     8    36    1
    15     8    74    1
    16     9    45    1
    17     9    84    1
    18    10    11    1
    19    10    12    1
    20    10    18    1
    21    10    49    1
    22    11    13    1
    23    11    16    1
    24    11    50    1
    25    12    15    1
    26    12    17    1
    27    12    51    1
    28    13    14    1
    29    13    52    1
    30    13    53    1
    31    14    15    2
    32    14    19    1
    33    15    54    1
    34    16    21   ar
    35    16    22   ar
    36    17    23   ar
    37    17    24   ar
    38    18    20    1
    39    19    55    1
    40    19    56    1
    41    19    57    1
    42    20    27   ar
    43    20    31   ar
    44    21    28   ar
    45    22    29   ar
    46    22    58    1
    47    23    25   ar
    48    24    26   ar
    49    25    30   ar
    50    25    59    1
    51    26    30   ar
    52    26    60    1
    53    27    33   ar
    54    28    32   ar
    55    28    61    1
    56    29    32   ar
    57    29    62    1
    58    30    35    1
    59    31    34   ar
    60    31    63    1
    61    33    36   ar
    62    33    37    1
    63    34    36   ar
    64    34    67    1
    65    35    38   ar
    66    37    40    1
    67    37    68    1
    68    37    69    1
    69    38    39   ar
    70    38    71    1
    71    39    41   ar
    72    39    43   ar
    73    40    42    2
    74    40    73    1
    75    41    44   ar
    76    42    47    1
    77    42    48    1
    78    43    46   ar
    79    43    75    1
    80    44    45   ar
    81    44    76    1
    82    45    46   ar
    83    46    77    1
    84    47    78    1
    85    47    79    1
    86    47    80    1
    87    48    81    1
    88    48    82    1
    89    48    83    1
