@<TRIPOS>MOLECULE
IMPHY013020
 91 94 0 0 0
SMALL
GASTEIGER

@<TRIPOS>ATOM
      1 O           5.1350   -2.9050    0.0000 O.3     1  UNL1       -0.3313
      2 O          15.5991    0.6309    0.0000 O.3     1  UNL1       -0.3313
      3 O           3.4030   -4.9050    0.0000 O.3     1  UNL1       -0.3865
      4 O          17.5991   -1.1012    0.0000 O.3     1  UNL1       -0.3865
      5 O           5.1350   -5.9050    0.0000 O.3     1  UNL1       -0.3864
      6 O          18.5991    0.6309    0.0000 O.3     1  UNL1       -0.3864
      7 O           6.8671   -2.9050    0.0000 O.3     1  UNL1       -0.4608
      8 O          15.5991    2.3630    0.0000 O.3     1  UNL1       -0.4608
      9 O           6.8671   -4.9050    0.0000 O.3     1  UNL1       -0.3829
     10 O          17.5991    2.3630    0.0000 O.3     1  UNL1       -0.3829
     11 O           2.5369   -3.4050    0.0000 O.3     1  UNL1       -0.3924
     12 O          16.0991   -1.9672    0.0000 O.3     1  UNL1       -0.3924
     13 O           7.7331    1.5950    0.0000 O.3     1  UNL1       -0.4598
     14 O          11.0991    3.2290    0.0000 O.3     1  UNL1       -0.4598
     15 O           7.5991    4.0950    0.0000 O.3     1  UNL1       -0.3765
     16 O           9.4651    5.5950    0.0000 O.3     1  UNL1       -0.4786
     17 O           6.8671    3.0950    0.0000 O.2     1  UNL1       -0.2507
     18 O           9.5991    2.3630    0.0000 O.2     1  UNL1       -0.2507
     19 O           7.7331    5.5950    0.0000 O.2     1  UNL1       -0.2477
     20 C           4.2690   -4.4050    0.0000 C.3     1  UNL1        0.1120
     21 C          17.0991   -0.2351    0.0000 C.3     1  UNL1        0.1120
     22 C           5.1350   -4.9050    0.0000 C.3     1  UNL1        0.1152
     23 C          17.5991    0.6309    0.0000 C.3     1  UNL1        0.1152
     24 C           4.2690   -3.4050    0.0000 C.3     1  UNL1        0.1140
     25 C          16.0991   -0.2351    0.0000 C.3     1  UNL1        0.1140
     26 C           6.0010   -4.4050    0.0000 C.3     1  UNL1        0.1454
     27 C          17.0991    1.4969    0.0000 C.3     1  UNL1        0.1454
     28 C           6.0010   -3.4050    0.0000 C.3     1  UNL1        0.2308
     29 C          16.0991    1.4969    0.0000 C.3     1  UNL1        0.2308
     30 C           3.4030   -2.9050    0.0000 C.3     1  UNL1        0.0731
     31 C          15.5991   -1.1012    0.0000 C.3     1  UNL1        0.0731
     32 C           6.8671   -1.9050    0.0000 C.ar    1  UNL1        0.1240
     33 C          14.5991    2.3630    0.0000 C.ar    1  UNL1        0.1240
     34 C           7.7331   -1.4050    0.0000 C.ar    1  UNL1       -0.0195
     35 C          14.0991    3.2290    0.0000 C.ar    1  UNL1       -0.0195
     36 C           6.0010   -1.4050    0.0000 C.ar    1  UNL1       -0.0195
     37 C          14.0991    1.4969    0.0000 C.ar    1  UNL1       -0.0195
     38 C           6.8671    0.0950    0.0000 C.ar    1  UNL1       -0.0101
     39 C          12.5991    2.3630    0.0000 C.ar    1  UNL1       -0.0101
     40 C           7.7331   -0.4050    0.0000 C.ar    1  UNL1       -0.0519
     41 C          13.0991    3.2290    0.0000 C.ar    1  UNL1       -0.0519
     42 C           6.0010   -0.4050    0.0000 C.ar    1  UNL1       -0.0519
     43 C          13.0991    1.4969    0.0000 C.ar    1  UNL1       -0.0519
     44 C           8.5991    4.0950    0.0000 C.3     1  UNL1        0.1820
     45 C           6.8671    1.0950    0.0000 C.3     1  UNL1        0.1175
     46 C          11.5991    2.3630    0.0000 C.3     1  UNL1        0.1175
     47 C           8.5991    3.0950    0.0000 C.3     1  UNL1        0.0847
     48 C           9.5991    4.0950    0.0000 C.3     1  UNL1        0.0847
     49 C           7.7331    2.5950    0.0000 C.2     1  UNL1        0.3107
     50 C          10.0991    3.2290    0.0000 C.2     1  UNL1        0.3107
     51 C           8.5991    5.0950    0.0000 C.2     1  UNL1        0.3379
     52 H           4.2690   -5.0250    0.0000 H       1  UNL1        0.0647
     53 H          17.7191   -0.2351    0.0000 H       1  UNL1        0.0647
     54 H           4.5981   -5.2150    0.0000 H       1  UNL1        0.0648
     55 H          17.9091    0.0940    0.0000 H       1  UNL1        0.0648
     56 H           4.2690   -2.7850    0.0000 H       1  UNL1        0.0647
     57 H          15.4791   -0.2351    0.0000 H       1  UNL1        0.0647
     58 H           6.0010   -5.0250    0.0000 H       1  UNL1        0.0683
     59 H          17.7191    1.4969    0.0000 H       1  UNL1        0.0683
     60 H           6.0010   -2.7850    0.0000 H       1  UNL1        0.1084
     61 H          15.4791    1.4969    0.0000 H       1  UNL1        0.1084
     62 H           3.8015   -2.4300    0.0000 H       1  UNL1        0.0584
     63 H           3.0044   -2.4300    0.0000 H       1  UNL1        0.0584
     64 H          15.1242   -0.7026    0.0000 H       1  UNL1        0.0584
     65 H          15.1242   -1.4997    0.0000 H       1  UNL1        0.0584
     66 H           3.4030   -5.5250    0.0000 H       1  UNL1        0.2100
     67 H          18.2191   -1.1012    0.0000 H       1  UNL1        0.2100
     68 H           5.6720   -6.2150    0.0000 H       1  UNL1        0.2100
     69 H          18.9091    0.0940    0.0000 H       1  UNL1        0.2100
     70 H           7.4040   -4.5950    0.0000 H       1  UNL1        0.2102
     71 H          18.2191    2.3630    0.0000 H       1  UNL1        0.2102
     72 H           2.0000   -3.0950    0.0000 H       1  UNL1        0.2095
     73 H          15.7891   -2.5041    0.0000 H       1  UNL1        0.2095
     74 H           8.2700   -1.7150    0.0000 H       1  UNL1        0.0654
     75 H          14.4091    3.7659    0.0000 H       1  UNL1        0.0654
     76 H           5.4641   -1.7150    0.0000 H       1  UNL1        0.0654
     77 H          14.4091    0.9600    0.0000 H       1  UNL1        0.0654
     78 H           8.2700   -0.0950    0.0000 H       1  UNL1        0.0622
     79 H          12.7891    3.7659    0.0000 H       1  UNL1        0.0622
     80 H           5.4641   -0.0950    0.0000 H       1  UNL1        0.0622
     81 H          12.7891    0.9600    0.0000 H       1  UNL1        0.0622
     82 H           6.6550    1.6776    0.0000 H       1  UNL1        0.0749
     83 H           6.2565    0.9873    0.0000 H       1  UNL1        0.0749
     84 H          11.0165    2.1509    0.0000 H       1  UNL1        0.0749
     85 H          11.7068    1.7524    0.0000 H       1  UNL1        0.0749
     86 H           8.8112    2.5124    0.0000 H       1  UNL1        0.0412
     87 H           9.2097    3.2027    0.0000 H       1  UNL1        0.0412
     88 H          10.1817    4.3070    0.0000 H       1  UNL1        0.0412
     89 H           9.4914    4.7056    0.0000 H       1  UNL1        0.0412
     90 H           7.2891    4.6319    0.0000 H       1  UNL1        0.2109
     91 H           9.4651    6.2150    0.0000 H       1  UNL1        0.2951
@<TRIPOS>BOND
     1     1    24    1
     2     1    28    1
     3     2    25    1
     4     2    29    1
     5    20     3    1
     6     3    66    1
     7    21     4    1
     8     4    67    1
     9    22     5    1
    10     5    68    1
    11    23     6    1
    12     6    69    1
    13    28     7    1
    14     7    32    1
    15    29     8    1
    16     8    33    1
    17    26     9    1
    18     9    70    1
    19    27    10    1
    20    10    71    1
    21    11    30    1
    22    11    72    1
    23    12    31    1
    24    12    73    1
    25    13    45    1
    26    13    49    1
    27    14    46    1
    28    14    50    1
    29    15    44    1
    30    15    90    1
    31    16    51    1
    32    16    91    1
    33    17    49    2
    34    18    50    2
    35    19    51    2
    36    20    22    1
    37    20    24    1
    38    20    52    1
    39    21    23    1
    40    21    25    1
    41    21    53    1
    42    22    26    1
    43    22    54    1
    44    23    27    1
    45    23    55    1
    46    24    30    1
    47    24    56    1
    48    25    31    1
    49    25    57    1
    50    26    28    1
    51    26    58    1
    52    27    29    1
    53    27    59    1
    54    28    60    1
    55    29    61    1
    56    30    62    1
    57    30    63    1
    58    31    64    1
    59    31    65    1
    60    32    34   ar
    61    32    36   ar
    62    33    35   ar
    63    33    37   ar
    64    34    40   ar
    65    34    74    1
    66    35    41   ar
    67    35    75    1
    68    36    42   ar
    69    36    76    1
    70    37    43   ar
    71    37    77    1
    72    38    40   ar
    73    38    42   ar
    74    38    45    1
    75    39    41   ar
    76    39    43   ar
    77    39    46    1
    78    40    78    1
    79    41    79    1
    80    42    80    1
    81    43    81    1
    82    44    47    1
    83    44    48    1
    84    44    51    1
    85    45    82    1
    86    45    83    1
    87    46    84    1
    88    46    85    1
    89    47    49    1
    90    47    86    1
    91    47    87    1
    92    48    50    1
    93    48    88    1
    94    48    89    1
