@<TRIPOS>MOLECULE
IMPHY010527
 113 120 0 0 0
SMALL
GASTEIGER

@<TRIPOS>ATOM
      1 O          12.0235    1.4069    0.0000 O.3     1  UNL1       -0.3448
      2 O          11.8816   -0.5735    0.0000 O.3     1  UNL1       -0.3480
      3 O           6.0010    1.2729    0.0000 O.3     1  UNL1       -0.3445
      4 O           4.2178    4.4172    0.0000 O.3     1  UNL1       -0.3914
      5 O           4.2690    1.2729    0.0000 O.3     1  UNL1       -0.3431
      6 O           6.0010   -0.7271    0.0000 O.3     1  UNL1       -0.3378
      7 O           4.2690   -1.7271    0.0000 O.3     1  UNL1       -0.3864
      8 O           2.5369   -0.7271    0.0000 O.3     1  UNL1       -0.3866
      9 O           5.1350   -2.2271    0.0000 O.3     1  UNL1       -0.3431
     10 O           7.7331   -1.7271    0.0000 O.3     1  UNL1       -0.3841
     11 O           7.7331   -3.7271    0.0000 O.3     1  UNL1       -0.3864
     12 O           6.0010   -4.7271    0.0000 O.3     1  UNL1       -0.3866
     13 C           9.5511    1.2615    0.0000 C.3     1  UNL1       -0.0233
     14 C           9.5704    2.2613    0.0000 C.3     1  UNL1       -0.0295
     15 C          10.4913    0.9386    0.0000 C.3     1  UNL1       -0.0015
     16 C           8.7141    2.7779    0.0000 C.3     1  UNL1       -0.0305
     17 C          11.0903    1.7319    0.0000 C.3     1  UNL1        0.0660
     18 C           7.8386    2.2947    0.0000 C.3     1  UNL1       -0.0262
     19 C          10.5223    2.5478    0.0000 C.3     1  UNL1       -0.0226
     20 C           8.6756    0.7783    0.0000 C.3     1  UNL1       -0.0467
     21 C          11.0594    0.1300    0.0000 C.3     1  UNL1        0.0160
     22 C           7.8194    1.2949    0.0000 C.3     1  UNL1       -0.0486
     23 C           6.9386    2.8190    0.0000 C.3     1  UNL1        0.0184
     24 C          12.0044    0.4189    0.0000 C.3     1  UNL1        0.1732
     25 C           9.5318    0.2617    0.0000 C.3     1  UNL1       -0.0590
     26 C           8.7503    3.8189    0.0000 C.3     1  UNL1       -0.0311
     27 C           6.9506    3.8606    0.0000 C.2     1  UNL1       -0.0624
     28 C           6.0010    2.2729    0.0000 C.3     1  UNL1        0.0734
     29 C          10.7346   -0.8157    0.0000 C.3     1  UNL1       -0.0572
     30 C           7.8626    4.3639    0.0000 C.2     1  UNL1       -0.0838
     31 C          12.9253    0.8087    0.0000 C.3     1  UNL1        0.0020
     32 C           6.9270    1.8190    0.0000 C.3     1  UNL1       -0.0532
     33 C           6.0260    4.4282    0.0000 C.3     1  UNL1       -0.0049
     34 C           5.0635    2.8190    0.0000 C.3     1  UNL1        0.0007
     35 C           5.0761    3.9039    0.0000 C.3     1  UNL1        0.0613
     36 C          13.7234    0.2062    0.0000 C.3     1  UNL1       -0.0435
     37 C          13.6006   -0.7863    0.0000 C.3     1  UNL1       -0.0201
     38 C          12.6797   -1.1761    0.0000 C.3     1  UNL1        0.0535
     39 C           5.1350    0.7729    0.0000 C.3     1  UNL1        0.1885
     40 C          14.3986   -1.3888    0.0000 C.3     1  UNL1       -0.0603
     41 C           5.1350   -0.2271    0.0000 C.3     1  UNL1        0.1406
     42 C           4.2690   -0.7271    0.0000 C.3     1  UNL1        0.1143
     43 C           3.4030    0.7729    0.0000 C.3     1  UNL1        0.0873
     44 C           3.4030   -0.2271    0.0000 C.3     1  UNL1        0.1095
     45 C           2.5369    1.2729    0.0000 C.3     1  UNL1       -0.0361
     46 C           6.0010   -1.7271    0.0000 C.3     1  UNL1        0.1884
     47 C           6.8671   -2.2271    0.0000 C.3     1  UNL1        0.1341
     48 C           6.8671   -3.2271    0.0000 C.3     1  UNL1        0.1140
     49 C           5.1350   -3.2271    0.0000 C.3     1  UNL1        0.0873
     50 C           6.0010   -3.7271    0.0000 C.3     1  UNL1        0.1095
     51 C           4.2690   -3.7271    0.0000 C.3     1  UNL1       -0.0361
     52 H           9.6766    3.1047    0.0000 H       1  UNL1        0.0310
     53 H           9.9805    0.2591    0.0000 H       1  UNL1        0.0335
     54 H           9.4615    3.1829    0.0000 H       1  UNL1        0.0310
     55 H          11.6039    2.4092    0.0000 H       1  UNL1        0.0600
     56 H           8.5664    1.8556    0.0000 H       1  UNL1        0.0313
     57 H          11.0655    2.8466    0.0000 H       1  UNL1        0.0293
     58 H          10.2822    3.1194    0.0000 H       1  UNL1        0.0293
     59 H           8.2680    0.3111    0.0000 H       1  UNL1        0.0271
     60 H           9.0649    0.2957    0.0000 H       1  UNL1        0.0271
     61 H          10.4455    0.0430    0.0000 H       1  UNL1        0.0354
     62 H           7.2110    1.4143    0.0000 H       1  UNL1        0.0268
     63 H           7.5961    0.7165    0.0000 H       1  UNL1        0.0268
     64 H           8.9119    0.2736    0.0000 H       1  UNL1        0.0235
     65 H           9.5199   -0.3582    0.0000 H       1  UNL1        0.0235
     66 H          10.1517    0.2497    0.0000 H       1  UNL1        0.0235
     67 H           9.3571    3.6917    0.0000 H       1  UNL1        0.0310
     68 H           8.9794    4.3950    0.0000 H       1  UNL1        0.0310
     69 H           6.5386    1.9639    0.0000 H       1  UNL1        0.0606
     70 H          10.1482   -0.6143    0.0000 H       1  UNL1        0.0234
     71 H          10.5332   -1.4021    0.0000 H       1  UNL1        0.0234
     72 H          11.3209   -1.0171    0.0000 H       1  UNL1        0.0234
     73 H           7.8769    4.9837    0.0000 H       1  UNL1        0.0572
     74 H          13.3792    1.2311    0.0000 H       1  UNL1        0.0317
     75 H          12.5881    1.3290    0.0000 H       1  UNL1        0.0317
     76 H           6.3070    1.8262    0.0000 H       1  UNL1        0.0239
     77 H           6.9198    1.1991    0.0000 H       1  UNL1        0.0239
     78 H           7.5470    1.8119    0.0000 H       1  UNL1        0.0239
     79 H           6.4360    4.8933    0.0000 H       1  UNL1        0.0335
     80 H           5.6379    4.9117    0.0000 H       1  UNL1        0.0335
     81 H           4.4539    2.9321    0.0000 H       1  UNL1        0.0315
     82 H           4.8477    2.2378    0.0000 H       1  UNL1        0.0315
     83 H           4.5350    3.6012    0.0000 H       1  UNL1        0.0597
     84 H          14.3161    0.0243    0.0000 H       1  UNL1        0.0270
     85 H          14.0054    0.7583    0.0000 H       1  UNL1        0.0270
     86 H          14.1715   -0.5446    0.0000 H       1  UNL1        0.0320
     87 H          12.2258   -1.5985    0.0000 H       1  UNL1        0.0563
     88 H          13.0169   -1.6964    0.0000 H       1  UNL1        0.0563
     89 H           5.1350    1.3929    0.0000 H       1  UNL1        0.0938
     90 H          14.0250   -1.8836    0.0000 H       1  UNL1        0.0233
     91 H          14.8934   -1.7624    0.0000 H       1  UNL1        0.0233
     92 H          14.7722   -0.8941    0.0000 H       1  UNL1        0.0233
     93 H           4.2274    5.0371    0.0000 H       1  UNL1        0.2098
     94 H           5.1350   -0.8471    0.0000 H       1  UNL1        0.0675
     95 H           3.7320   -1.0371    0.0000 H       1  UNL1        0.0648
     96 H           3.4030    1.3929    0.0000 H       1  UNL1        0.0621
     97 H           2.8660    0.0829    0.0000 H       1  UNL1        0.0646
     98 H           2.8469    1.8098    0.0000 H       1  UNL1        0.0255
     99 H           2.0000    1.5829    0.0000 H       1  UNL1        0.0255
    100 H           2.2269    0.7359    0.0000 H       1  UNL1        0.0255
    101 H           6.5380   -1.4171    0.0000 H       1  UNL1        0.0938
    102 H           3.7320   -2.0371    0.0000 H       1  UNL1        0.2100
    103 H           2.0000   -0.4171    0.0000 H       1  UNL1        0.2100
    104 H           7.4040   -2.5371    0.0000 H       1  UNL1        0.0671
    105 H           6.8671   -3.8471    0.0000 H       1  UNL1        0.0648
    106 H           4.5981   -2.9171    0.0000 H       1  UNL1        0.0621
    107 H           5.4641   -4.0371    0.0000 H       1  UNL1        0.0646
    108 H           8.2700   -2.0371    0.0000 H       1  UNL1        0.2101
    109 H           3.9590   -3.1902    0.0000 H       1  UNL1        0.0255
    110 H           3.7320   -4.0371    0.0000 H       1  UNL1        0.0255
    111 H           4.5790   -4.2641    0.0000 H       1  UNL1        0.0255
    112 H           7.7331   -4.3471    0.0000 H       1  UNL1        0.2100
    113 H           5.4641   -5.0371    0.0000 H       1  UNL1        0.2100
@<TRIPOS>BOND
     1     1    17    1
     2    24     1    1
     3     2    24    1
     4     2    38    1
     5    28     3    1
     6    39     3    1
     7    35     4    1
     8     4    93    1
     9     5    39    1
    10     5    43    1
    11    41     6    1
    12    46     6    1
    13    42     7    1
    14     7   102    1
    15    44     8    1
    16     8   103    1
    17     9    46    1
    18     9    49    1
    19    47    10    1
    20    10   108    1
    21    48    11    1
    22    11   112    1
    23    50    12    1
    24    12   113    1
    25    13    14    1
    26    13    15    1
    27    13    20    1
    28    13    25    1
    29    14    16    1
    30    14    19    1
    31    14    52    1
    32    15    17    1
    33    15    21    1
    34    15    53    1
    35    16    18    1
    36    16    26    1
    37    16    54    1
    38    17    19    1
    39    17    55    1
    40    18    22    1
    41    18    23    1
    42    18    56    1
    43    19    57    1
    44    19    58    1
    45    20    22    1
    46    20    59    1
    47    20    60    1
    48    21    24    1
    49    21    29    1
    50    21    61    1
    51    22    62    1
    52    22    63    1
    53    23    27    1
    54    23    28    1
    55    23    32    1
    56    24    31    1
    57    25    64    1
    58    25    65    1
    59    25    66    1
    60    26    30    1
    61    26    67    1
    62    26    68    1
    63    27    30    2
    64    27    33    1
    65    28    34    1
    66    28    69    1
    67    29    70    1
    68    29    71    1
    69    29    72    1
    70    30    73    1
    71    31    36    1
    72    31    74    1
    73    31    75    1
    74    32    76    1
    75    32    77    1
    76    32    78    1
    77    33    35    1
    78    33    79    1
    79    33    80    1
    80    34    35    1
    81    34    81    1
    82    34    82    1
    83    35    83    1
    84    36    37    1
    85    36    84    1
    86    36    85    1
    87    37    38    1
    88    37    40    1
    89    37    86    1
    90    38    87    1
    91    38    88    1
    92    39    41    1
    93    39    89    1
    94    40    90    1
    95    40    91    1
    96    40    92    1
    97    41    42    1
    98    41    94    1
    99    42    44    1
   100    42    95    1
   101    43    44    1
   102    43    45    1
   103    43    96    1
   104    44    97    1
   105    45    98    1
   106    45    99    1
   107    45   100    1
   108    46    47    1
   109    46   101    1
   110    47    48    1
   111    47   104    1
   112    48    50    1
   113    48   105    1
   114    49    50    1
   115    49    51    1
   116    49   106    1
   117    50   107    1
   118    51   109    1
   119    51   110    1
   120    51   111    1
