@<TRIPOS>MOLECULE
IMPHY007120
 29 31 0 0 0
SMALL
GASTEIGER

@<TRIPOS>ATOM
      1 O           3.9061   -2.1249    0.0000 O.3     1  UNL1       -0.4815
      2 O           5.6500    0.9513    0.0000 O.2     1  UNL1       -0.4214
      3 O           6.5442    2.4790    0.0000 O.2     1  UNL1       -0.2452
      4 C           3.0000   -1.6111    0.0000 C.3     1  UNL1        0.1235
      5 C           4.8000   -0.5902    0.0000 C.ar    1  UNL1        0.0594
      6 C           4.8000   -1.5902    0.0000 C.ar    1  UNL1        0.1324
      7 C           3.0000   -0.5694    0.0000 C.2     1  UNL1       -0.0408
      8 C           2.0000   -1.6149    0.0000 C.3     1  UNL1       -0.0215
      9 C           2.5033   -2.4790    0.0000 C.3     1  UNL1       -0.0215
     10 C           3.9061   -0.0556    0.0000 C.2     1  UNL1       -0.0478
     11 C           5.6660   -0.0902    0.0000 C.ar    1  UNL1        0.1496
     12 C           6.5320   -0.5902    0.0000 C.ar    1  UNL1        0.0184
     13 C           5.6660   -2.0902    0.0000 C.ar    1  UNL1       -0.0185
     14 C           6.5320   -1.5902    0.0000 C.ar    1  UNL1       -0.0476
     15 C           7.4420   -0.0834    0.0000 C.ar    1  UNL1       -0.0443
     16 C           7.4501    0.9582    0.0000 C.ar    1  UNL1        0.0236
     17 C           6.5480    1.4790    0.0000 C.ar    1  UNL1        0.3372
     18 H           2.4643   -0.2574    0.0000 H       1  UNL1        0.0611
     19 H           1.9976   -0.9949    0.0000 H       1  UNL1        0.0271
     20 H           1.3800   -1.6173    0.0000 H       1  UNL1        0.0271
     21 H           2.0024   -2.2349    0.0000 H       1  UNL1        0.0271
     22 H           1.9652   -2.1711    0.0000 H       1  UNL1        0.0271
     23 H           2.1954   -3.0171    0.0000 H       1  UNL1        0.0271
     24 H           3.0415   -2.7869    0.0000 H       1  UNL1        0.0271
     25 H           3.9132    0.5644    0.0000 H       1  UNL1        0.0624
     26 H           5.6660   -2.7102    0.0000 H       1  UNL1        0.0654
     27 H           7.0690   -1.9002    0.0000 H       1  UNL1        0.0626
     28 H           7.9754   -0.3996    0.0000 H       1  UNL1        0.0627
     29 H           7.9882    1.2661    0.0000 H       1  UNL1        0.0689
@<TRIPOS>BOND
     1     1     4    1
     2     1     6    1
     3     2    11   ar
     4     2    17   ar
     5     3    17    2
     6     4     7    1
     7     4     8    1
     8     4     9    1
     9     5     6   ar
    10     5    10    1
    11     5    11   ar
    12     6    13   ar
    13     7    10    2
    14     7    18    1
    15     8    19    1
    16     8    20    1
    17     8    21    1
    18     9    22    1
    19     9    23    1
    20     9    24    1
    21    10    25    1
    22    11    12   ar
    23    12    14   ar
    24    12    15   ar
    25    13    14   ar
    26    13    26    1
    27    14    27    1
    28    15    16   ar
    29    15    28    1
    30    16    17   ar
    31    16    29    1
