@<TRIPOS>MOLECULE
IMPHY008041
 52 54 0 0 0
SMALL
GASTEIGER

@<TRIPOS>ATOM
      1 O           4.5787    0.2775    0.0000 O.3     1  UNL1       -0.4564
      2 O           7.1188   -0.2113    0.0000 O.3     1  UNL1       -0.4623
      3 O           6.5309   -2.6437    0.0000 O.3     1  UNL1       -0.3773
      4 O           4.5787   -2.6778    0.0000 O.3     1  UNL1       -0.3866
      5 O           2.8660    0.2887    0.0000 O.2     1  UNL1       -0.2452
      6 O           7.9848   -1.6890    0.0000 O.2     1  UNL1       -0.2476
      7 N           5.4255    2.7217    0.0000 N.3     1  UNL1       -0.2954
      8 C           5.4255    1.7440    0.0000 C.3     1  UNL1        0.0534
      9 C           6.2721    1.2552    0.0000 C.3     1  UNL1        0.0135
     10 C           4.5787    1.2552    0.0000 C.3     1  UNL1        0.1203
     11 C           6.9692    2.1840    0.0000 C.3     1  UNL1       -0.0327
     12 C           6.3609    2.9878    0.0000 C.3     1  UNL1       -0.0003
     13 C           4.4056    2.9661    0.0000 C.3     1  UNL1        0.0027
     14 C           3.8842    2.1840    0.0000 C.3     1  UNL1       -0.0013
     15 C           6.2721    0.2775    0.0000 C.3     1  UNL1        0.0969
     16 C           6.2721   -1.6778    0.0000 C.3     1  UNL1        0.1644
     17 C           5.4255   -1.1890    0.0000 C.3     1  UNL1        0.0256
     18 C           3.7320   -0.2113    0.0000 C.2     1  UNL1        0.3377
     19 C           7.1188   -1.1890    0.0000 C.2     1  UNL1        0.3392
     20 C           4.5787   -1.6778    0.0000 C.3     1  UNL1        0.0922
     21 C           3.7320   -1.1890    0.0000 C.2     1  UNL1        0.0609
     22 C           5.6986   -2.4970    0.0000 C.3     1  UNL1       -0.0252
     23 C           5.4255   -0.1890    0.0000 C.3     1  UNL1       -0.0566
     24 C           2.8660   -1.6890    0.0000 C.2     1  UNL1       -0.0747
     25 C           2.0000   -1.1890    0.0000 C.3     1  UNL1       -0.0460
     26 H           5.4255    0.8940    0.0000 H       1  UNL1        0.0503
     27 H           7.0785    0.9863    0.0000 H       1  UNL1        0.0350
     28 H           3.7721    0.9870    0.0000 H       1  UNL1        0.0750
     29 H           7.4283    1.7673    0.0000 H       1  UNL1        0.0282
     30 H           7.4267    2.6024    0.0000 H       1  UNL1        0.0282
     31 H           6.8976    3.2982    0.0000 H       1  UNL1        0.0427
     32 H           6.1190    3.5587    0.0000 H       1  UNL1        0.0427
     33 H           4.6198    3.5479    0.0000 H       1  UNL1        0.0428
     34 H           3.8529    3.2471    0.0000 H       1  UNL1        0.0428
     35 H           3.4106    2.5841    0.0000 H       1  UNL1        0.0314
     36 H           3.4329    1.7588    0.0000 H       1  UNL1        0.0314
     37 H           5.6615    0.3852    0.0000 H       1  UNL1        0.0701
     38 H           6.0601   -0.3051    0.0000 H       1  UNL1        0.0701
     39 H           5.9624   -0.8790    0.0000 H       1  UNL1        0.0360
     40 H           4.0418   -1.9878    0.0000 H       1  UNL1        0.0649
     41 H           5.1907   -2.1414    0.0000 H       1  UNL1        0.0263
     42 H           5.3430   -3.0049    0.0000 H       1  UNL1        0.0263
     43 H           6.2065   -2.8526    0.0000 H       1  UNL1        0.0263
     44 H           6.0455   -0.1890    0.0000 H       1  UNL1        0.0234
     45 H           5.4254    0.4310    0.0000 H       1  UNL1        0.0234
     46 H           4.8055   -0.1890    0.0000 H       1  UNL1        0.0234
     47 H           2.8660   -2.3090    0.0000 H       1  UNL1        0.0575
     48 H           7.1298   -2.8042    0.0000 H       1  UNL1        0.2109
     49 H           4.0418   -2.9878    0.0000 H       1  UNL1        0.2102
     50 H           2.3100   -0.6520    0.0000 H       1  UNL1        0.0272
     51 H           1.4631   -0.8790    0.0000 H       1  UNL1        0.0272
     52 H           1.6900   -1.7259    0.0000 H       1  UNL1        0.0272
@<TRIPOS>BOND
     1     1    10    1
     2     1    18    1
     3     2    15    1
     4     2    19    1
     5    16     3    1
     6     3    48    1
     7    20     4    1
     8     4    49    1
     9     5    18    2
    10     6    19    2
    11     7     8    1
    12     7    12    1
    13     7    13    1
    14     8     9    1
    15     8    10    1
    16     8    26    1
    17     9    11    1
    18     9    15    1
    19     9    27    1
    20    10    14    1
    21    10    28    1
    22    11    12    1
    23    11    29    1
    24    11    30    1
    25    12    31    1
    26    12    32    1
    27    13    14    1
    28    13    33    1
    29    13    34    1
    30    14    35    1
    31    14    36    1
    32    15    37    1
    33    15    38    1
    34    16    17    1
    35    16    19    1
    36    16    22    1
    37    17    20    1
    38    17    23    1
    39    17    39    1
    40    18    21    1
    41    20    21    1
    42    20    40    1
    43    21    24    2
    44    22    41    1
    45    22    42    1
    46    22    43    1
    47    23    44    1
    48    23    45    1
    49    23    46    1
    50    24    25    1
    51    24    47    1
    52    25    50    1
    53    25    51    1
    54    25    52    1
