@<TRIPOS>MOLECULE
IMPHY003644
 56 60 0 0 0
SMALL
GASTEIGER

@<TRIPOS>ATOM
      1 O           9.3042   -2.9187    0.0000 O.3     1  UNL1       -0.3910
      2 O           7.5596   -3.4226    0.0000 O.3     1  UNL1       -0.4677
      3 O           6.2860   -2.2489    0.0000 O.2     1  UNL1       -0.2504
      4 O           3.6526    3.4077    0.0000 O.3     1  UNL1       -0.4944
      5 N           6.9654    1.2673    0.0000 N.3     1  UNL1       -0.2934
      6 N           4.5124    0.1498    0.0000 N.ar    1  UNL1       -0.3564
      7 C           7.6200   -0.6958    0.0000 C.3     1  UNL1       -0.0200
      8 C           8.3170    0.0783    0.0000 C.3     1  UNL1       -0.0244
      9 C           6.6028   -0.4714    0.0000 C.3     1  UNL1       -0.0279
     10 C           6.2962    0.5241    0.0000 C.3     1  UNL1        0.0512
     11 C           7.9393   -1.7327    0.0000 C.3     1  UNL1        0.0854
     12 C           7.9875    1.0664    0.0000 C.3     1  UNL1        0.0026
     13 C           9.3816   -0.1309    0.0000 C.3     1  UNL1       -0.0464
     14 C           8.9988   -1.9665    0.0000 C.3     1  UNL1        0.0684
     15 C           9.7248   -1.1602    0.0000 C.3     1  UNL1       -0.0258
     16 C           5.3181    0.7321    0.0000 C.ar    1  UNL1        0.0377
     17 C           6.6564    2.2183    0.0000 C.3     1  UNL1        0.0036
     18 C           5.0091    1.6831    0.0000 C.ar    1  UNL1       -0.0129
     19 C           5.6782    2.4262    0.0000 C.3     1  UNL1       -0.0124
     20 C           7.2616   -2.4681    0.0000 C.2     1  UNL1        0.3127
     21 C           4.0150    1.6805    0.0000 C.ar    1  UNL1        0.0448
     22 C           3.7086    0.7348    0.0000 C.ar    1  UNL1        0.0505
     23 C           3.3334    2.4600    0.0000 C.ar    1  UNL1        0.1295
     24 C           2.6994    0.5031    0.0000 C.ar    1  UNL1       -0.0376
     25 C           2.3191    2.2517    0.0000 C.ar    1  UNL1       -0.0192
     26 C           2.0000    1.2666    0.0000 C.ar    1  UNL1       -0.0563
     27 C           6.8820   -4.1580    0.0000 C.3     1  UNL1        0.0817
     28 C           2.9914    4.1580    0.0000 C.3     1  UNL1        0.0788
     29 H           7.0440   -1.3208    0.0000 H       1  UNL1        0.0313
     30 H           8.8784    0.7165    0.0000 H       1  UNL1        0.0316
     31 H           5.9878   -0.5497    0.0000 H       1  UNL1        0.0287
     32 H           6.5748   -1.0907    0.0000 H       1  UNL1        0.0287
     33 H           5.7226   -0.1031    0.0000 H       1  UNL1        0.0527
     34 H           7.3346   -1.5956    0.0000 H       1  UNL1        0.0442
     35 H           8.6005    1.1590    0.0000 H       1  UNL1        0.0429
     36 H           8.0011    1.6863    0.0000 H       1  UNL1        0.0429
     37 H           9.9946   -0.0383    0.0000 H       1  UNL1        0.0269
     38 H           9.3953    0.4890    0.0000 H       1  UNL1        0.0269
     39 H           9.6050   -2.0965    0.0000 H       1  UNL1        0.0601
     40 H          10.1078   -1.6477    0.0000 H       1  UNL1        0.0290
     41 H          10.2708   -0.8663    0.0000 H       1  UNL1        0.0290
     42 H           7.2703    2.3046    0.0000 H       1  UNL1        0.0430
     43 H           6.6780    2.8380    0.0000 H       1  UNL1        0.0430
     44 H           5.9105    3.0011    0.0000 H       1  UNL1        0.0326
     45 H           5.1524    2.7548    0.0000 H       1  UNL1        0.0326
     46 H           4.5113   -0.4702    0.0000 H       1  UNL1        0.1656
     47 H           9.9101   -3.0500    0.0000 H       1  UNL1        0.2098
     48 H           2.5152   -0.0889    0.0000 H       1  UNL1        0.0638
     49 H           1.9056    2.7137    0.0000 H       1  UNL1        0.0654
     50 H           1.3942    1.1349    0.0000 H       1  UNL1        0.0619
     51 H           6.4260   -3.7378    0.0000 H       1  UNL1        0.0661
     52 H           6.4618   -4.6139    0.0000 H       1  UNL1        0.0661
     53 H           7.3379   -4.5782    0.0000 H       1  UNL1        0.0661
     54 H           3.4566    4.5679    0.0000 H       1  UNL1        0.0660
     55 H           2.5815    4.6232    0.0000 H       1  UNL1        0.0660
     56 H           2.5263    3.7481    0.0000 H       1  UNL1        0.0660
@<TRIPOS>BOND
     1    14     1    1
     2     1    47    1
     3     2    20    1
     4     2    27    1
     5     3    20    2
     6     4    23    1
     7     4    28    1
     8     5    10    1
     9     5    12    1
    10     5    17    1
    11     6    16   ar
    12     6    22   ar
    13     6    46    1
    14     7     8    1
    15     7     9    1
    16     7    11    1
    17     7    29    1
    18     8    12    1
    19     8    13    1
    20     8    30    1
    21     9    10    1
    22     9    31    1
    23     9    32    1
    24    10    16    1
    25    10    33    1
    26    11    14    1
    27    11    20    1
    28    11    34    1
    29    12    35    1
    30    12    36    1
    31    13    15    1
    32    13    37    1
    33    13    38    1
    34    14    15    1
    35    14    39    1
    36    15    40    1
    37    15    41    1
    38    16    18   ar
    39    17    19    1
    40    17    42    1
    41    17    43    1
    42    18    19    1
    43    18    21   ar
    44    19    44    1
    45    19    45    1
    46    21    22   ar
    47    21    23   ar
    48    22    24   ar
    49    23    25   ar
    50    24    26   ar
    51    24    48    1
    52    25    26   ar
    53    25    49    1
    54    26    50    1
    55    27    51    1
    56    27    52    1
    57    27    53    1
    58    28    54    1
    59    28    55    1
    60    28    56    1
