@<TRIPOS>MOLECULE
IMPHY016635
 45 47 0 0 0
SMALL
GASTEIGER

@<TRIPOS>ATOM
      1 O           3.3660   -1.4503    0.0000 O.3     1  UNL1       -0.3653
      2 O           9.0622   -0.5843    0.0000 O.3     1  UNL1       -0.4878
      3 O          12.5542   -0.6190    0.0000 O.2     1  UNL1       -0.4220
      4 O          14.3244   -0.6085    0.0000 O.2     1  UNL1       -0.2452
      5 C           2.8660   -0.5843    0.0000 C.3     1  UNL1        0.0904
      6 C           3.8660   -0.5843    0.0000 C.3     1  UNL1        0.0881
      7 C           4.7320   -0.0843    0.0000 C.3     1  UNL1       -0.0202
      8 C           2.0000   -1.0843    0.0000 C.3     1  UNL1       -0.0336
      9 C           2.8660    0.4157    0.0000 C.3     1  UNL1       -0.0336
     10 C           5.5981   -0.5843    0.0000 C.3     1  UNL1       -0.0295
     11 C           6.4641   -0.0843    0.0000 C.2     1  UNL1       -0.0733
     12 C           6.4641    0.9157    0.0000 C.3     1  UNL1       -0.0437
     13 C           7.3301   -0.5843    0.0000 C.2     1  UNL1       -0.0481
     14 C           8.1962   -0.0843    0.0000 C.3     1  UNL1        0.1081
     15 C           9.9282   -0.0843    0.0000 C.ar    1  UNL1        0.1245
     16 C          10.7942   -0.5843    0.0000 C.ar    1  UNL1        0.0231
     17 C          11.6603   -0.0843    0.0000 C.ar    1  UNL1        0.1425
     18 C          11.6603    0.9157    0.0000 C.ar    1  UNL1        0.0178
     19 C           9.9282    0.9157    0.0000 C.ar    1  UNL1       -0.0191
     20 C          10.7942    1.4157    0.0000 C.ar    1  UNL1       -0.0476
     21 C          12.5542    1.4503    0.0000 C.ar    1  UNL1       -0.0443
     22 C          13.4603    0.9365    0.0000 C.ar    1  UNL1        0.0236
     23 C          13.4603   -0.1051    0.0000 C.ar    1  UNL1        0.3372
     24 H           4.3044   -1.0227    0.0000 H       1  UNL1        0.0625
     25 H           5.1306    0.3906    0.0000 H       1  UNL1        0.0294
     26 H           4.3335    0.3906    0.0000 H       1  UNL1        0.0294
     27 H           1.6900   -0.5474    0.0000 H       1  UNL1        0.0258
     28 H           1.4631   -1.3943    0.0000 H       1  UNL1        0.0258
     29 H           2.3100   -1.6212    0.0000 H       1  UNL1        0.0258
     30 H           3.4860    0.4157    0.0000 H       1  UNL1        0.0258
     31 H           2.8660    1.0357    0.0000 H       1  UNL1        0.0258
     32 H           2.2460    0.4157    0.0000 H       1  UNL1        0.0258
     33 H           5.1996   -1.0593    0.0000 H       1  UNL1        0.0311
     34 H           5.9966   -1.0593    0.0000 H       1  UNL1        0.0311
     35 H           7.0841    0.9157    0.0000 H       1  UNL1        0.0274
     36 H           6.4641    1.5357    0.0000 H       1  UNL1        0.0274
     37 H           5.8441    0.9157    0.0000 H       1  UNL1        0.0274
     38 H           7.3301   -1.2043    0.0000 H       1  UNL1        0.0605
     39 H           8.5947    0.3906    0.0000 H       1  UNL1        0.0742
     40 H           7.7976    0.3906    0.0000 H       1  UNL1        0.0742
     41 H          10.7942   -1.2043    0.0000 H       1  UNL1        0.0691
     42 H           9.3913    1.2257    0.0000 H       1  UNL1        0.0654
     43 H          10.7942    2.0357    0.0000 H       1  UNL1        0.0626
     44 H          12.5470    2.0703    0.0000 H       1  UNL1        0.0627
     45 H          13.9960    1.2486    0.0000 H       1  UNL1        0.0689
@<TRIPOS>BOND
     1     1     5    1
     2     1     6    1
     3     2    14    1
     4     2    15    1
     5     3    17   ar
     6     3    23   ar
     7     4    23    2
     8     5     6    1
     9     5     8    1
    10     5     9    1
    11     6     7    1
    12     6    24    1
    13     7    10    1
    14     7    25    1
    15     7    26    1
    16     8    27    1
    17     8    28    1
    18     8    29    1
    19     9    30    1
    20     9    31    1
    21     9    32    1
    22    10    11    1
    23    10    33    1
    24    10    34    1
    25    11    12    1
    26    11    13    2
    27    12    35    1
    28    12    36    1
    29    12    37    1
    30    13    14    1
    31    13    38    1
    32    14    39    1
    33    14    40    1
    34    15    16   ar
    35    15    19   ar
    36    16    17   ar
    37    16    41    1
    38    17    18   ar
    39    18    20   ar
    40    18    21   ar
    41    19    20   ar
    42    19    42    1
    43    20    43    1
    44    21    22   ar
    45    21    44    1
    46    22    23   ar
    47    22    45    1
