@<TRIPOS>MOLECULE
IMPHY008480
 78 81 0 0 0
SMALL
GASTEIGER

@<TRIPOS>ATOM
      1 O           2.0000   -4.4699    0.0000 O.2     1  UNL1       -0.2968
      2 O           9.9391    0.9945    0.0000 O.2     1  UNL1       -0.3007
      3 O           7.5784    4.9222    0.0000 O.3     1  UNL1       -0.4774
      4 O           6.2892    3.7654    0.0000 O.2     1  UNL1       -0.2455
      5 C           7.3931   -1.4175    0.0000 C.3     1  UNL1       -0.0192
      6 C           7.3931   -2.4175    0.0000 C.3     1  UNL1       -0.0051
      7 C           8.3393   -1.1128    0.0000 C.3     1  UNL1       -0.0256
      8 C           6.5271   -2.9175    0.0000 C.2     1  UNL1       -0.0633
      9 C           4.7510   -2.9244    0.0000 C.3     1  UNL1       -0.0067
     10 C           8.3393   -2.7223    0.0000 C.3     1  UNL1       -0.0431
     11 C           5.6610   -2.4175    0.0000 C.2     1  UNL1       -0.0635
     12 C           6.5271   -0.9175    0.0000 C.3     1  UNL1       -0.0428
     13 C           8.9229   -1.9175    0.0000 C.3     1  UNL1       -0.0483
     14 C           4.7430   -3.9660    0.0000 C.3     1  UNL1       -0.0198
     15 C           5.6610   -1.4175    0.0000 C.3     1  UNL1       -0.0304
     16 C           6.5431   -3.9590    0.0000 C.3     1  UNL1       -0.0306
     17 C           5.6451   -4.4868    0.0000 C.3     1  UNL1       -0.0448
     18 C           7.3931   -0.4175    0.0000 C.3     1  UNL1       -0.0585
     19 C           7.3931   -3.4175    0.0000 C.3     1  UNL1       -0.0553
     20 C           3.8076   -4.5157    0.0000 C.3     1  UNL1        0.0270
     21 C           8.6500   -0.1623    0.0000 C.3     1  UNL1        0.0181
     22 C           3.8242   -2.3603    0.0000 C.3     1  UNL1       -0.0369
     23 C           4.7587   -1.9244    0.0000 C.3     1  UNL1       -0.0555
     24 C           2.8763   -2.8882    0.0000 C.3     1  UNL1        0.0072
     25 C           2.8680   -3.9732    0.0000 C.2     1  UNL1        0.1392
     26 C           7.9821    0.5820    0.0000 C.3     1  UNL1       -0.0400
     27 C           3.3109   -5.3836    0.0000 C.3     1  UNL1       -0.0528
     28 C           4.3109   -5.3798    0.0000 C.3     1  UNL1       -0.0528
     29 C           9.6285    0.0439    0.0000 C.2     1  UNL1        0.1237
     30 C           8.2928    1.5325    0.0000 C.3     1  UNL1       -0.0334
     31 C           7.6249    2.2768    0.0000 C.2     1  UNL1       -0.0743
     32 C           7.9356    3.2274    0.0000 C.2     1  UNL1        0.0294
     33 C           8.9141    3.4336    0.0000 C.3     1  UNL1       -0.0332
     34 C           7.2678    3.9717    0.0000 C.2     1  UNL1        0.3322
     35 H           8.9518   -1.0166    0.0000 H       1  UNL1        0.0313
     36 H           8.0883   -3.2892    0.0000 H       1  UNL1        0.0274
     37 H           8.8767   -3.0315    0.0000 H       1  UNL1        0.0274
     38 H           6.9256   -0.4426    0.0000 H       1  UNL1        0.0274
     39 H           6.1285   -0.4426    0.0000 H       1  UNL1        0.0274
     40 H           4.7454   -4.5860    0.0000 H       1  UNL1        0.0318
     41 H           9.3838   -2.3323    0.0000 H       1  UNL1        0.0269
     42 H           9.3838   -1.5028    0.0000 H       1  UNL1        0.0269
     43 H           5.4490   -0.8349    0.0000 H       1  UNL1        0.0310
     44 H           5.0504   -1.5252    0.0000 H       1  UNL1        0.0310
     45 H           6.7612   -4.5394    0.0000 H       1  UNL1        0.0310
     46 H           7.1523   -3.8435    0.0000 H       1  UNL1        0.0310
     47 H           5.2478   -4.9628    0.0000 H       1  UNL1        0.0271
     48 H           6.0460   -4.9597    0.0000 H       1  UNL1        0.0271
     49 H           8.0131   -0.4175    0.0000 H       1  UNL1        0.0235
     50 H           7.3931    0.2025    0.0000 H       1  UNL1        0.0235
     51 H           6.7731   -0.4175    0.0000 H       1  UNL1        0.0235
     52 H           6.7731   -3.4175    0.0000 H       1  UNL1        0.0238
     53 H           7.3931   -4.0375    0.0000 H       1  UNL1        0.0238
     54 H           8.0131   -3.4175    0.0000 H       1  UNL1        0.0238
     55 H           9.0640   -0.6237    0.0000 H       1  UNL1        0.0377
     56 H           4.2324   -1.8936    0.0000 H       1  UNL1        0.0278
     57 H           3.4343   -1.8783    0.0000 H       1  UNL1        0.0278
     58 H           5.3787   -1.9292    0.0000 H       1  UNL1        0.0238
     59 H           4.7635   -1.3044    0.0000 H       1  UNL1        0.0238
     60 H           4.1388   -1.9196    0.0000 H       1  UNL1        0.0238
     61 H           2.6718   -2.3030    0.0000 H       1  UNL1        0.0342
     62 H           2.2647   -2.9896    0.0000 H       1  UNL1        0.0342
     63 H           7.4352    0.8740    0.0000 H       1  UNL1        0.0275
     64 H           7.5996    0.0941    0.0000 H       1  UNL1        0.0275
     65 H           3.7752   -5.6919    0.0000 H       1  UNL1        0.0239
     66 H           4.6230   -5.9155    0.0000 H       1  UNL1        0.0239
     67 H           4.8466   -5.0677    0.0000 H       1  UNL1        0.0239
     68 H           2.7728   -5.0757    0.0000 H       1  UNL1        0.0239
     69 H           3.0030   -5.9218    0.0000 H       1  UNL1        0.0239
     70 H           3.8490   -5.6916    0.0000 H       1  UNL1        0.0239
     71 H          10.0425   -0.4175    0.0000 H       1  UNL1        0.1029
     72 H           8.8397    1.2405    0.0000 H       1  UNL1        0.0308
     73 H           8.6753    2.0204    0.0000 H       1  UNL1        0.0308
     74 H           7.0183    2.1490    0.0000 H       1  UNL1        0.0577
     75 H           9.0420    2.8269    0.0000 H       1  UNL1        0.0280
     76 H           9.5208    3.5614    0.0000 H       1  UNL1        0.0280
     77 H           8.7863    4.0402    0.0000 H       1  UNL1        0.0280
     78 H           7.1644    5.3836    0.0000 H       1  UNL1        0.2954
@<TRIPOS>BOND
     1     1    25    2
     2     2    29    2
     3     3    34    1
     4     3    78    1
     5     4    34    2
     6     5     6    1
     7     5     7    1
     8     5    12    1
     9     5    18    1
    10     6     8    1
    11     6    10    1
    12     6    19    1
    13     7    13    1
    14     7    21    1
    15     7    35    1
    16     8    11    2
    17     8    16    1
    18     9    11    1
    19     9    14    1
    20     9    22    1
    21     9    23    1
    22    10    13    1
    23    10    36    1
    24    10    37    1
    25    11    15    1
    26    12    15    1
    27    12    38    1
    28    12    39    1
    29    13    41    1
    30    13    42    1
    31    14    17    1
    32    14    20    1
    33    14    40    1
    34    15    43    1
    35    15    44    1
    36    16    17    1
    37    16    45    1
    38    16    46    1
    39    17    47    1
    40    17    48    1
    41    18    49    1
    42    18    50    1
    43    18    51    1
    44    19    52    1
    45    19    53    1
    46    19    54    1
    47    20    25    1
    48    20    27    1
    49    20    28    1
    50    21    26    1
    51    21    29    1
    52    21    55    1
    53    22    24    1
    54    22    56    1
    55    22    57    1
    56    23    58    1
    57    23    59    1
    58    23    60    1
    59    24    25    1
    60    24    61    1
    61    24    62    1
    62    26    30    1
    63    26    63    1
    64    26    64    1
    65    27    68    1
    66    27    69    1
    67    27    70    1
    68    28    65    1
    69    28    66    1
    70    28    67    1
    71    29    71    1
    72    30    31    1
    73    30    72    1
    74    30    73    1
    75    31    32    2
    76    31    74    1
    77    32    33    1
    78    32    34    1
    79    33    75    1
    80    33    76    1
    81    33    77    1
