@<TRIPOS>MOLECULE
IMPHY015318
 22 22 0 0 0
SMALL
GASTEIGER

@<TRIPOS>ATOM
      1 C           3.7320    1.0000    0.0000 C.ar    1  UNL1       -0.0470
      2 C           2.8660    0.5000    0.0000 C.ar    1  UNL1       -0.0475
      3 C           4.5981    0.5000    0.0000 C.ar    1  UNL1       -0.0514
      4 C           4.5981   -0.5000    0.0000 C.ar    1  UNL1       -0.0253
      5 C           2.8660   -0.5000    0.0000 C.ar    1  UNL1       -0.0580
      6 C           3.7320   -1.0000    0.0000 C.ar    1  UNL1       -0.0543
      7 C           3.7320    2.0000    0.0000 C.3     1  UNL1       -0.0394
      8 C           2.0000    1.0000    0.0000 C.3     1  UNL1       -0.0395
      9 C           5.4641   -1.0000    0.0000 C.2     1  UNL1       -0.0617
     10 C           5.4641   -2.0000    0.0000 C.2     1  UNL1       -0.0981
     11 H           5.1350    0.8100    0.0000 H       1  UNL1        0.0626
     12 H           2.3291   -0.8100    0.0000 H       1  UNL1        0.0620
     13 H           3.7320   -1.6200    0.0000 H       1  UNL1        0.0624
     14 H           4.3520    2.0000    0.0000 H       1  UNL1        0.0278
     15 H           3.7320    2.6200    0.0000 H       1  UNL1        0.0278
     16 H           3.1120    2.0000    0.0000 H       1  UNL1        0.0278
     17 H           2.3100    1.5369    0.0000 H       1  UNL1        0.0278
     18 H           1.4631    1.3100    0.0000 H       1  UNL1        0.0278
     19 H           1.6900    0.4631    0.0000 H       1  UNL1        0.0278
     20 H           6.0010   -0.6900    0.0000 H       1  UNL1        0.0618
     21 H           4.9272   -2.3100    0.0000 H       1  UNL1        0.0535
     22 H           6.0010   -2.3100    0.0000 H       1  UNL1        0.0535
@<TRIPOS>BOND
     1     1     2   ar
     2     1     3   ar
     3     1     7    1
     4     2     5   ar
     5     2     8    1
     6     3     4   ar
     7     3    11    1
     8     4     6   ar
     9     4     9    1
    10     5     6   ar
    11     5    12    1
    12     6    13    1
    13     7    14    1
    14     7    15    1
    15     7    16    1
    16     8    17    1
    17     8    18    1
    18     8    19    1
    19     9    10    2
    20     9    20    1
    21    10    21    1
    22    10    22    1
