@<TRIPOS>MOLECULE
IMPHY002330
 38 44 0 0 0
SMALL
GASTEIGER

@<TRIPOS>ATOM
      1 C           3.0167   -1.1958    0.0000 C.3     1  UNL1        0.0296
      2 C           3.0167   -1.7958    0.0000 C.3     1  UNL1        0.1179
      3 C           3.5375   -2.0958    0.0000 C.3     1  UNL1        0.0296
      4 C           4.0542   -1.7958    0.0000 C.3     1  UNL1        0.0026
      5 C           4.0542   -1.1958    0.0000 C.3     1  UNL1        0.0024
      6 C           3.5375   -0.8958    0.0000 C.3     1  UNL1        0.0026
      7 C           4.5750   -2.0958    0.0000 C.3     1  UNL1        0.0026
      8 C           5.0958   -1.7958    0.0000 C.3     1  UNL1        0.0296
      9 C           5.0958   -1.1958    0.0000 C.3     1  UNL1        0.1157
     10 C           4.5750   -0.8958    0.0000 C.3     1  UNL1        0.0273
     11 C           5.6125   -0.8958    0.0000 C.3     1  UNL1        0.1224
     12 C           5.6125   -0.2958    0.0000 C.3     1  UNL1        0.0437
     13 C           5.0958    0.0042    0.0000 C.3     1  UNL1        0.0065
     14 C           4.5750   -0.2958    0.0000 C.3     1  UNL1        0.0028
     15 C           6.1333    0.0042    0.0000 C.2     1  UNL1       -0.0250
     16 C           6.6500   -0.2958    0.0000 C.2     1  UNL1       -0.0280
     17 C           6.6500   -0.8958    0.0000 C.3     1  UNL1        0.0555
     18 C           6.1333    0.6000    0.0000 C.2     1  UNL1        0.0235
     19 C           5.6125    0.9000    0.0000 C.2     1  UNL1        0.0809
     20 C           6.6500    0.9000    0.0000 C.3     1  UNL1        0.2353
     21 C           5.6125    1.5000    0.0000 C.2     1  UNL1        0.3415
     22 O           6.6500    1.5000    0.0000 O.3     1  UNL1       -0.4404
     23 C           5.6125    0.3000    0.0000 C.3     1  UNL1        0.0068
     24 C           4.0542   -0.5958    0.0000 C.3     1  UNL1        0.0001
     25 O           5.6125   -1.4958    0.0000 O.3     1  UNL1       -0.3581
     26 O           2.4958   -2.0958    0.0000 O.3     1  UNL1       -0.3311
     27 C           1.9750   -2.3958    0.0000 C.3     1  UNL1        0.2692
     28 O           1.4583   -2.0958    0.0000 O.3     1  UNL1       -0.3284
     29 C           0.9375   -2.3958    0.0000 C.3     1  UNL1        0.1507
     30 C           0.9375   -2.9958    0.0000 C.3     1  UNL1        0.2085
     31 C           1.4583   -3.2958    0.0000 C.3     1  UNL1        0.1832
     32 C           1.9750   -2.9958    0.0000 C.3     1  UNL1        0.2373
     33 C           0.4208   -2.0958    0.0000 C.3     1  UNL1        0.0350
     34 O           0.4208   -3.2958    0.0000 O.3     1  UNL1       -0.2178
     35 O           1.4583   -3.8917    0.0000 O.3     1  UNL1       -0.3481
     36 C           1.9750   -4.1917    0.0000 C.3     1  UNL1        0.1742
     37 O           5.0917    1.8000    0.0000 O.2     1  UNL1       -0.2449
     38 O           2.4917   -3.2917    0.0000 O.3     1  UNL1       -0.2150
@<TRIPOS>BOND
     1     1     2    1
     2     2     3    1
     3     2    26    1
     4     4     3    1
     5     4     5    1
     6     4     7    1
     7     5     6    1
     8     5    24    1
     9     6     1    1
    10     7     8    1
    11     9     8    1
    12     9    10    1
    13     9    11    1
    14     9    25    1
    15    10     5    1
    16    10    14    1
    17    11    12    1
    18    11    17    1
    19    11    25    1
    20    12    13    1
    21    12    15    1
    22    12    23    1
    23    13    14    1
    24    15    16    2
    25    15    18    1
    26    16    17    1
    27    18    19    2
    28    18    20    1
    29    19    21    1
    30    20    22    1
    31    21    22    1
    32    21    37    2
    33    27    26    1
    34    27    28    1
    35    28    29    1
    36    29    30    1
    37    29    33    1
    38    30    31    1
    39    30    34    1
    40    31    32    1
    41    31    35    1
    42    32    27    1
    43    32    38    1
    44    35    36    1
