@<TRIPOS>MOLECULE
IMPHY008817
 21 24 0 0 0
SMALL
GASTEIGER

@<TRIPOS>ATOM
      1 O           7.2481    0.2517    0.0000 O.2     1  UNL1       -0.2666
      2 O           2.8641    1.7968    0.0000 O.3     1  UNL1       -0.4684
      3 O           4.6380    2.8209    0.0000 O.3     1  UNL1       -0.4684
      4 N           6.3821   -1.2483    0.0000 N.ar    1  UNL1       -0.2731
      5 C           5.5161   -1.7483    0.0000 C.ar    1  UNL1        0.0668
      6 C           4.6501   -1.2483    0.0000 C.ar    1  UNL1        0.0165
      7 C           4.6501   -0.2483    0.0000 C.ar    1  UNL1        0.0092
      8 C           5.5161    0.2517    0.0000 C.ar    1  UNL1        0.0598
      9 C           5.5322   -2.7898    0.0000 C.ar    1  UNL1        0.0177
     10 C           6.3821   -0.2483    0.0000 C.ar    1  UNL1        0.2648
     11 C           7.0000   -2.0267    0.0000 C.ar    1  UNL1        0.0830
     12 C           6.5202   -2.8970    0.0000 C.ar    1  UNL1        0.0205
     13 C           3.7401   -1.7552    0.0000 C.ar    1  UNL1        0.0014
     14 C           3.7401    0.2585    0.0000 C.ar    1  UNL1        0.0402
     15 C           5.5322    1.2932    0.0000 C.ar    1  UNL1        0.0448
     16 C           4.6341   -3.3176    0.0000 C.ar    1  UNL1        0.0015
     17 C           3.7320   -2.7968    0.0000 C.ar    1  UNL1        0.0001
     18 C           3.7320    1.3001    0.0000 C.ar    1  UNL1        0.1724
     19 C           4.6341    1.8209    0.0000 C.ar    1  UNL1        0.1725
     20 C           2.0000    1.2934    0.0000 C.3     1  UNL1        0.2526
     21 C           5.5059    3.3176    0.0000 C.3     1  UNL1        0.2526
@<TRIPOS>BOND
     1     1    10    2
     2     2    18    1
     3     2    20    1
     4     3    19    1
     5     3    21    1
     6     4     5   ar
     7     4    10   ar
     8     4    11   ar
     9     5     6   ar
    10     5     9   ar
    11     6     7   ar
    12     6    13   ar
    13     7     8   ar
    14     7    14   ar
    15     8    10   ar
    16     8    15   ar
    17     9    12   ar
    18     9    16   ar
    19    11    12   ar
    20    13    17   ar
    21    14    18   ar
    22    15    19   ar
    23    16    17   ar
    24    18    19   ar
