@<TRIPOS>MOLECULE
IMPHY017117
 32 32 0 0 0
SMALL
GASTEIGER

@<TRIPOS>ATOM
      1 O           7.1962   -1.2500    0.0000 O.2     1  UNL1       -0.4224
      2 O           7.1962    1.7500    0.0000 O.3     1  UNL1       -0.4945
      3 O           8.9282   -1.2500    0.0000 O.2     1  UNL1       -0.2448
      4 C           8.0622    0.2500    0.0000 C.ar    1  UNL1        0.0755
      5 C           7.1962    0.7500    0.0000 C.ar    1  UNL1        0.1333
      6 C           6.3301   -0.7500    0.0000 C.ar    1  UNL1        0.1354
      7 C           6.3301    0.2500    0.0000 C.ar    1  UNL1        0.0230
      8 C           8.0622   -0.7500    0.0000 C.ar    1  UNL1        0.3437
      9 C           5.4641   -1.2500    0.0000 C.2     1  UNL1       -0.0189
     10 C           8.9282    0.7500    0.0000 C.3     1  UNL1       -0.0294
     11 C           3.7320   -1.2500    0.0000 C.2     1  UNL1       -0.0545
     12 C           4.5981   -0.7500    0.0000 C.2     1  UNL1       -0.0557
     13 C           3.7320   -2.2500    0.0000 C.3     1  UNL1       -0.0400
     14 C           2.8660   -0.7500    0.0000 C.2     1  UNL1       -0.0842
     15 C           2.0000   -1.2500    0.0000 C.3     1  UNL1       -0.0463
     16 C           6.3301    2.2500    0.0000 C.3     1  UNL1        0.0788
     17 H           5.7932    0.5600    0.0000 H       1  UNL1        0.0691
     18 H           5.4641   -1.8700    0.0000 H       1  UNL1        0.0654
     19 H           9.2382    0.2131    0.0000 H       1  UNL1        0.0281
     20 H           9.4651    1.0600    0.0000 H       1  UNL1        0.0281
     21 H           8.6182    1.2869    0.0000 H       1  UNL1        0.0281
     22 H           4.5981   -0.1300    0.0000 H       1  UNL1        0.0621
     23 H           3.1120   -2.2500    0.0000 H       1  UNL1        0.0277
     24 H           3.7320   -2.8700    0.0000 H       1  UNL1        0.0277
     25 H           4.3520   -2.2500    0.0000 H       1  UNL1        0.0277
     26 H           2.8660   -0.1300    0.0000 H       1  UNL1        0.0572
     27 H           1.6900   -0.7131    0.0000 H       1  UNL1        0.0272
     28 H           1.4631   -1.5600    0.0000 H       1  UNL1        0.0272
     29 H           2.3100   -1.7869    0.0000 H       1  UNL1        0.0272
     30 H           6.6401    2.7869    0.0000 H       1  UNL1        0.0660
     31 H           5.7932    2.5600    0.0000 H       1  UNL1        0.0660
     32 H           6.0201    1.7131    0.0000 H       1  UNL1        0.0660
@<TRIPOS>BOND
     1     1     6   ar
     2     1     8   ar
     3     2     5    1
     4     2    16    1
     5     3     8    2
     6     4     5   ar
     7     4     8   ar
     8     4    10    1
     9     5     7   ar
    10     6     7   ar
    11     6     9    1
    12     7    17    1
    13     9    12    2
    14     9    18    1
    15    10    19    1
    16    10    20    1
    17    10    21    1
    18    11    12    1
    19    11    13    1
    20    11    14    2
    21    12    22    1
    22    13    23    1
    23    13    24    1
    24    13    25    1
    25    14    15    1
    26    14    26    1
    27    15    27    1
    28    15    28    1
    29    15    29    1
    30    16    30    1
    31    16    31    1
    32    16    32    1
