@<TRIPOS>MOLECULE
IMPHY005604
 52 53 0 0 0
SMALL
GASTEIGER

@<TRIPOS>ATOM
      1 O          10.2022   -0.8571    0.0000 O.3     1  UNL1       -0.4532
      2 O           6.8671   -0.6900    0.0000 O.3     1  UNL1       -0.4570
      3 O          10.2970   -2.6309    0.0000 O.2     1  UNL1       -0.2453
      4 O           6.0010    0.8100    0.0000 O.2     1  UNL1       -0.2452
      5 O           4.2690   -2.1900    0.0000 O.3     1  UNL1       -0.3902
      6 O           2.5369   -0.1900    0.0000 O.3     1  UNL1       -0.3910
      7 C           8.5991   -0.6900    0.0000 C.3     1  UNL1        0.0683
      8 C           7.7331   -0.1900    0.0000 C.3     1  UNL1        0.1177
      9 C           9.4651   -0.1900    0.0000 C.3     1  UNL1        0.1322
     10 C           7.7331    0.8100    0.0000 C.3     1  UNL1        0.0060
     11 C           8.8083   -1.6618    0.0000 C.2     1  UNL1        0.0400
     12 C           9.4651    0.8100    0.0000 C.2     1  UNL1       -0.0443
     13 C           8.5991    1.3100    0.0000 C.2     1  UNL1       -0.0730
     14 C           9.7970   -1.7649    0.0000 C.2     1  UNL1        0.3357
     15 C          10.3312    1.3100    0.0000 C.2     1  UNL1       -0.0728
     16 C          10.3312    2.3100    0.0000 C.3     1  UNL1       -0.0284
     17 C           9.4651    2.8100    0.0000 C.3     1  UNL1       -0.0308
     18 C           8.5991    2.3100    0.0000 C.2     1  UNL1       -0.0846
     19 C           8.1405   -2.4061    0.0000 C.2     1  UNL1       -0.0882
     20 C           9.7865    0.3137    0.0000 C.3     1  UNL1       -0.0437
     21 C          11.1972    0.8100    0.0000 C.3     1  UNL1       -0.0437
     22 C           6.0010   -0.1900    0.0000 C.2     1  UNL1        0.3374
     23 C           5.1350   -0.6900    0.0000 C.2     1  UNL1        0.0599
     24 C           5.1350   -1.6900    0.0000 C.3     1  UNL1        0.0757
     25 C           4.2690   -0.1900    0.0000 C.2     1  UNL1       -0.0468
     26 C           3.4030   -0.6900    0.0000 C.3     1  UNL1        0.0632
     27 H           7.9121   -1.1905    0.0000 H       1  UNL1        0.0427
     28 H           7.7331   -0.8100    0.0000 H       1  UNL1        0.0744
     29 H          10.2421    0.1547    0.0000 H       1  UNL1        0.0787
     30 H           7.5210    1.3926    0.0000 H       1  UNL1        0.0346
     31 H           7.1225    0.7023    0.0000 H       1  UNL1        0.0346
     32 H           9.2531    1.3926    0.0000 H       1  UNL1        0.0608
     33 H          10.9417    2.2023    0.0000 H       1  UNL1        0.0313
     34 H          10.5432    2.8926    0.0000 H       1  UNL1        0.0313
     35 H           9.8637    3.2850    0.0000 H       1  UNL1        0.0310
     36 H           9.0666    3.2850    0.0000 H       1  UNL1        0.0310
     37 H           8.0622    2.6200    0.0000 H       1  UNL1        0.0572
     38 H           7.5338   -2.2783    0.0000 H       1  UNL1        0.0540
     39 H           8.3331   -2.9954    0.0000 H       1  UNL1        0.0540
     40 H           9.3880   -0.1613    0.0000 H       1  UNL1        0.0274
     41 H          10.2614   -0.0848    0.0000 H       1  UNL1        0.0274
     42 H          10.1850    0.7886    0.0000 H       1  UNL1        0.0274
     43 H          10.8872    0.2731    0.0000 H       1  UNL1        0.0274
     44 H          11.7341    0.5000    0.0000 H       1  UNL1        0.0274
     45 H          11.5072    1.3469    0.0000 H       1  UNL1        0.0274
     46 H           5.3471   -2.2726    0.0000 H       1  UNL1        0.0609
     47 H           5.7456   -1.5823    0.0000 H       1  UNL1        0.0609
     48 H           4.2690    0.4300    0.0000 H       1  UNL1        0.0600
     49 H           3.0044   -1.1650    0.0000 H       1  UNL1        0.0601
     50 H           3.8015   -1.1650    0.0000 H       1  UNL1        0.0601
     51 H           4.2690   -2.8100    0.0000 H       1  UNL1        0.2099
     52 H           2.0000   -0.5000    0.0000 H       1  UNL1        0.2098
@<TRIPOS>BOND
     1     1     9    1
     2     1    14    1
     3     8     2    1
     4     2    22    1
     5     3    14    2
     6     4    22    2
     7     5    24    1
     8     5    51    1
     9     6    26    1
    10     6    52    1
    11     7     8    1
    12     7     9    1
    13     7    11    1
    14     7    27    1
    15     8    10    1
    16     8    28    1
    17     9    12    1
    18     9    29    1
    19    10    13    1
    20    10    30    1
    21    10    31    1
    22    11    14    1
    23    11    19    2
    24    12    15    2
    25    12    32    1
    26    13    18    2
    27    13    20    1
    28    15    16    1
    29    15    21    1
    30    16    17    1
    31    16    33    1
    32    16    34    1
    33    17    18    1
    34    17    35    1
    35    17    36    1
    36    18    37    1
    37    19    38    1
    38    19    39    1
    39    20    40    1
    40    20    41    1
    41    20    42    1
    42    21    43    1
    43    21    44    1
    44    21    45    1
    45    22    23    1
    46    23    24    1
    47    23    25    2
    48    24    46    1
    49    24    47    1
    50    25    26    1
    51    25    48    1
    52    26    49    1
    53    26    50    1
