@<TRIPOS>MOLECULE
IMPHY000188
 82 81 0 0 0
SMALL
GASTEIGER

@<TRIPOS>ATOM
      1 O          13.2583   -0.7500    0.0000 O.2     1  UNL1       -0.2974
      2 C          17.5885    0.7500    0.0000 C.3     1  UNL1       -0.0531
      3 C           8.9282    0.7500    0.0000 C.3     1  UNL1       -0.0531
      4 C          18.4545    0.2500    0.0000 C.3     1  UNL1       -0.0531
      5 C           8.0622    0.2500    0.0000 C.3     1  UNL1       -0.0531
      6 C           9.7942    0.2500    0.0000 C.3     1  UNL1       -0.0530
      7 C          16.7224    0.2500    0.0000 C.3     1  UNL1       -0.0530
      8 C          19.3205    0.7500    0.0000 C.3     1  UNL1       -0.0531
      9 C           7.1962    0.7500    0.0000 C.3     1  UNL1       -0.0531
     10 C          10.6603    0.7500    0.0000 C.3     1  UNL1       -0.0527
     11 C          15.8564    0.7500    0.0000 C.3     1  UNL1       -0.0527
     12 C           6.3301    0.2500    0.0000 C.3     1  UNL1       -0.0531
     13 C          20.1865    0.2500    0.0000 C.3     1  UNL1       -0.0531
     14 C          14.9904    0.2500    0.0000 C.3     1  UNL1       -0.0464
     15 C          11.5263    0.2500    0.0000 C.3     1  UNL1       -0.0464
     16 C          21.0526    0.7500    0.0000 C.3     1  UNL1       -0.0531
     17 C           5.4641    0.7500    0.0000 C.3     1  UNL1       -0.0531
     18 C          14.1244    0.7500    0.0000 C.3     1  UNL1        0.0058
     19 C          12.3923    0.7500    0.0000 C.3     1  UNL1        0.0058
     20 C           4.5981    0.2500    0.0000 C.3     1  UNL1       -0.0531
     21 C          21.9186    0.2500    0.0000 C.3     1  UNL1       -0.0531
     22 C          13.2583    0.2500    0.0000 C.2     1  UNL1        0.1334
     23 C          22.7846    0.7500    0.0000 C.3     1  UNL1       -0.0533
     24 C           3.7320    0.7500    0.0000 C.3     1  UNL1       -0.0533
     25 C           2.8660    0.2500    0.0000 C.3     1  UNL1       -0.0559
     26 C          23.6506    0.2500    0.0000 C.3     1  UNL1       -0.0559
     27 C          24.5167    0.7500    0.0000 C.3     1  UNL1       -0.0653
     28 C           2.0000    0.7500    0.0000 C.3     1  UNL1       -0.0653
     29 H           9.3267    1.2250    0.0000 H       1  UNL1        0.0265
     30 H           8.5297    1.2250    0.0000 H       1  UNL1        0.0265
     31 H          17.9870    1.2250    0.0000 H       1  UNL1        0.0265
     32 H          17.1899    1.2250    0.0000 H       1  UNL1        0.0265
     33 H          18.0560   -0.2249    0.0000 H       1  UNL1        0.0265
     34 H          18.8530   -0.2249    0.0000 H       1  UNL1        0.0265
     35 H           7.6636   -0.2249    0.0000 H       1  UNL1        0.0265
     36 H           8.4607   -0.2249    0.0000 H       1  UNL1        0.0265
     37 H          16.3239   -0.2249    0.0000 H       1  UNL1        0.0265
     38 H          17.1210   -0.2249    0.0000 H       1  UNL1        0.0265
     39 H           9.3957   -0.2249    0.0000 H       1  UNL1        0.0265
     40 H          10.1928   -0.2249    0.0000 H       1  UNL1        0.0265
     41 H           7.5947    1.2250    0.0000 H       1  UNL1        0.0265
     42 H           6.7976    1.2250    0.0000 H       1  UNL1        0.0265
     43 H          19.7190    1.2250    0.0000 H       1  UNL1        0.0265
     44 H          18.9220    1.2250    0.0000 H       1  UNL1        0.0265
     45 H          11.0588    1.2250    0.0000 H       1  UNL1        0.0265
     46 H          10.2617    1.2250    0.0000 H       1  UNL1        0.0265
     47 H          16.2549    1.2250    0.0000 H       1  UNL1        0.0265
     48 H          15.4579    1.2250    0.0000 H       1  UNL1        0.0265
     49 H           5.9316   -0.2249    0.0000 H       1  UNL1        0.0265
     50 H           6.7287   -0.2249    0.0000 H       1  UNL1        0.0265
     51 H          19.7880   -0.2249    0.0000 H       1  UNL1        0.0265
     52 H          20.5851   -0.2249    0.0000 H       1  UNL1        0.0265
     53 H          14.5919   -0.2249    0.0000 H       1  UNL1        0.0269
     54 H          15.3889   -0.2249    0.0000 H       1  UNL1        0.0269
     55 H          11.1278   -0.2249    0.0000 H       1  UNL1        0.0269
     56 H          11.9248   -0.2249    0.0000 H       1  UNL1        0.0269
     57 H          21.4511    1.2250    0.0000 H       1  UNL1        0.0265
     58 H          20.6540    1.2250    0.0000 H       1  UNL1        0.0265
     59 H           5.8626    1.2250    0.0000 H       1  UNL1        0.0265
     60 H           5.0656    1.2250    0.0000 H       1  UNL1        0.0265
     61 H          14.5229    1.2250    0.0000 H       1  UNL1        0.0342
     62 H          13.7258    1.2250    0.0000 H       1  UNL1        0.0342
     63 H          12.7908    1.2250    0.0000 H       1  UNL1        0.0342
     64 H          11.9938    1.2250    0.0000 H       1  UNL1        0.0342
     65 H          21.5201   -0.2249    0.0000 H       1  UNL1        0.0265
     66 H          22.3171   -0.2249    0.0000 H       1  UNL1        0.0265
     67 H           4.1996   -0.2249    0.0000 H       1  UNL1        0.0265
     68 H           4.9966   -0.2249    0.0000 H       1  UNL1        0.0265
     69 H           4.1306    1.2250    0.0000 H       1  UNL1        0.0265
     70 H           3.3335    1.2250    0.0000 H       1  UNL1        0.0265
     71 H          23.1831    1.2250    0.0000 H       1  UNL1        0.0265
     72 H          22.3861    1.2250    0.0000 H       1  UNL1        0.0265
     73 H          23.2521   -0.2249    0.0000 H       1  UNL1        0.0263
     74 H          24.0492   -0.2249    0.0000 H       1  UNL1        0.0263
     75 H           2.4675   -0.2249    0.0000 H       1  UNL1        0.0263
     76 H           3.2646   -0.2249    0.0000 H       1  UNL1        0.0263
     77 H           2.3100    1.2869    0.0000 H       1  UNL1        0.0230
     78 H           1.4631    1.0600    0.0000 H       1  UNL1        0.0230
     79 H           1.6900    0.2131    0.0000 H       1  UNL1        0.0230
     80 H          24.8267    0.2131    0.0000 H       1  UNL1        0.0230
     81 H          25.0536    1.0600    0.0000 H       1  UNL1        0.0230
     82 H          24.2067    1.2869    0.0000 H       1  UNL1        0.0230
@<TRIPOS>BOND
     1     1    22    2
     2     2     4    1
     3     2     7    1
     4     2    31    1
     5     2    32    1
     6     3     5    1
     7     3     6    1
     8     3    29    1
     9     3    30    1
    10     4     8    1
    11     4    33    1
    12     4    34    1
    13     5     9    1
    14     5    35    1
    15     5    36    1
    16     6    10    1
    17     6    39    1
    18     6    40    1
    19     7    11    1
    20     7    37    1
    21     7    38    1
    22     8    13    1
    23     8    43    1
    24     8    44    1
    25     9    12    1
    26     9    41    1
    27     9    42    1
    28    10    15    1
    29    10    45    1
    30    10    46    1
    31    11    14    1
    32    11    47    1
    33    11    48    1
    34    12    17    1
    35    12    49    1
    36    12    50    1
    37    13    16    1
    38    13    51    1
    39    13    52    1
    40    14    18    1
    41    14    53    1
    42    14    54    1
    43    15    19    1
    44    15    55    1
    45    15    56    1
    46    16    21    1
    47    16    57    1
    48    16    58    1
    49    17    20    1
    50    17    59    1
    51    17    60    1
    52    18    22    1
    53    18    61    1
    54    18    62    1
    55    19    22    1
    56    19    63    1
    57    19    64    1
    58    20    24    1
    59    20    67    1
    60    20    68    1
    61    21    23    1
    62    21    65    1
    63    21    66    1
    64    23    26    1
    65    23    71    1
    66    23    72    1
    67    24    25    1
    68    24    69    1
    69    24    70    1
    70    25    28    1
    71    25    75    1
    72    25    76    1
    73    26    27    1
    74    26    73    1
    75    26    74    1
    76    27    80    1
    77    27    81    1
    78    27    82    1
    79    28    77    1
    80    28    78    1
    81    28    79    1
