@<TRIPOS>MOLECULE
IMPHY004483
 51 52 0 0 0
SMALL
GASTEIGER

@<TRIPOS>ATOM
      1 O           3.5836   -0.0547    0.0000 O.3     1  UNL1       -0.4565
      2 O           5.3958    2.7500    0.0000 O.3     1  UNL1       -0.4608
      3 O           2.0000    0.7500    0.0000 O.2     1  UNL1       -0.2505
      4 O           6.2619   -2.7500    0.0000 O.3     1  UNL1       -0.4568
      5 O           7.1279    2.7500    0.0000 O.2     1  UNL1       -0.2512
      6 O           7.9939   -2.7500    0.0000 O.2     1  UNL1       -0.2511
      7 C           4.5298    1.2500    0.0000 C.3     1  UNL1        0.0498
      8 C           3.5836    1.5547    0.0000 C.3     1  UNL1        0.0635
      9 C           4.5298    0.2500    0.0000 C.3     1  UNL1        0.1285
     10 C           5.3958    1.7500    0.0000 C.3     1  UNL1        0.1139
     11 C           6.2619    1.2500    0.0000 C.3     1  UNL1        0.0057
     12 C           3.0000    0.7500    0.0000 C.2     1  UNL1        0.3110
     13 C           5.3958   -0.2500    0.0000 C.2     1  UNL1       -0.0411
     14 C           3.2729    2.5053    0.0000 C.3     1  UNL1       -0.0518
     15 C           6.2619    0.2500    0.0000 C.2     1  UNL1       -0.0729
     16 C           5.3958   -1.2500    0.0000 C.2     1  UNL1       -0.0328
     17 C           6.2619   -1.7500    0.0000 C.3     1  UNL1        0.1274
     18 C           7.1279   -1.2500    0.0000 C.3     1  UNL1        0.0067
     19 C           7.1279   -0.2500    0.0000 C.2     1  UNL1       -0.0811
     20 C           4.8053   -0.2801    0.0000 C.3     1  UNL1       -0.0437
     21 C           4.5298   -1.7500    0.0000 C.3     1  UNL1       -0.0402
     22 C           6.2619    3.2500    0.0000 C.2     1  UNL1        0.3042
     23 C           6.2619    4.2500    0.0000 C.3     1  UNL1        0.0332
     24 C           7.1279   -3.2500    0.0000 C.2     1  UNL1        0.3045
     25 C           7.1279   -4.2500    0.0000 C.3     1  UNL1        0.0333
     26 H           4.4642    1.8665    0.0000 H       1  UNL1        0.0384
     27 H           2.9711    1.6509    0.0000 H       1  UNL1        0.0416
     28 H           4.4642   -0.3665    0.0000 H       1  UNL1        0.0783
     29 H           5.9328    2.0600    0.0000 H       1  UNL1        0.0741
     30 H           6.8725    1.1423    0.0000 H       1  UNL1        0.0346
     31 H           6.4739    1.8326    0.0000 H       1  UNL1        0.0346
     32 H           6.0064   -0.3577    0.0000 H       1  UNL1        0.0609
     33 H           3.8623    2.6979    0.0000 H       1  UNL1        0.0238
     34 H           3.0803    3.0946    0.0000 H       1  UNL1        0.0238
     35 H           2.6836    2.3126    0.0000 H       1  UNL1        0.0238
     36 H           5.7249   -2.0600    0.0000 H       1  UNL1        0.0785
     37 H           7.3400   -1.8326    0.0000 H       1  UNL1        0.0346
     38 H           7.7385   -1.1423    0.0000 H       1  UNL1        0.0346
     39 H           7.6648    0.0600    0.0000 H       1  UNL1        0.0573
     40 H           4.5933    0.3025    0.0000 H       1  UNL1        0.0274
     41 H           4.2227   -0.4921    0.0000 H       1  UNL1        0.0274
     42 H           5.0174   -0.8627    0.0000 H       1  UNL1        0.0274
     43 H           4.2198   -1.2131    0.0000 H       1  UNL1        0.0276
     44 H           3.9929   -2.0600    0.0000 H       1  UNL1        0.0276
     45 H           4.8398   -2.2869    0.0000 H       1  UNL1        0.0276
     46 H           6.8819    4.2500    0.0000 H       1  UNL1        0.0342
     47 H           6.2619    4.8700    0.0000 H       1  UNL1        0.0342
     48 H           5.6419    4.2500    0.0000 H       1  UNL1        0.0342
     49 H           6.5079   -4.2500    0.0000 H       1  UNL1        0.0342
     50 H           7.1279   -4.8700    0.0000 H       1  UNL1        0.0342
     51 H           7.7479   -4.2500    0.0000 H       1  UNL1        0.0342
@<TRIPOS>BOND
     1     1     9    1
     2     1    12    1
     3     2    10    1
     4     2    22    1
     5     3    12    2
     6     4    17    1
     7     4    24    1
     8     5    22    2
     9     6    24    2
    10     7     8    1
    11     7     9    1
    12     7    10    1
    13     7    26    1
    14     8    12    1
    15     8    14    1
    16     8    27    1
    17     9    13    1
    18     9    28    1
    19    10    11    1
    20    10    29    1
    21    11    15    1
    22    11    30    1
    23    11    31    1
    24    13    16    2
    25    13    32    1
    26    14    33    1
    27    14    34    1
    28    14    35    1
    29    15    19    2
    30    15    20    1
    31    16    17    1
    32    16    21    1
    33    17    18    1
    34    17    36    1
    35    18    19    1
    36    18    37    1
    37    18    38    1
    38    19    39    1
    39    20    40    1
    40    20    41    1
    41    20    42    1
    42    21    43    1
    43    21    44    1
    44    21    45    1
    45    22    23    1
    46    23    46    1
    47    23    47    1
    48    23    48    1
    49    24    25    1
    50    25    49    1
    51    25    50    1
    52    25    51    1
