@<TRIPOS>MOLECULE
IMPHY000735
 78 80 0 0 0
SMALL
GASTEIGER

@<TRIPOS>ATOM
      1 O          14.7415   -4.8027    0.0000 O.3     1  UNL1       -0.4828
      2 O          16.0307   -2.0365    0.0000 O.2     1  UNL1       -0.2750
      3 O          19.3251   -3.9980    0.0000 O.3     1  UNL1       -0.5068
      4 O           9.4651   -1.9980    0.0000 O.2     1  UNL1       -0.2708
      5 N          14.3843   -1.4984    0.0000 N.am    1  UNL1       -0.3147
      6 N           8.5991   -3.4980    0.0000 N.am    1  UNL1       -0.3118
      7 N          13.9806    2.8417    0.0000 N.pl3   1  UNL1       -0.1138
      8 N           4.2690   -2.9980    0.0000 N.pl3   1  UNL1       -0.1138
      9 N          13.6234    4.5365    0.0000 N.pl3   1  UNL1       -0.2893
     10 N          12.3343    3.3798    0.0000 N.pl3   1  UNL1       -0.2893
     11 N           2.5369   -2.9980    0.0000 N.pl3   1  UNL1       -0.2893
     12 N           3.4030   -4.4980    0.0000 N.pl3   1  UNL1       -0.2893
     13 C          14.7415   -3.1933    0.0000 C.3     1  UNL1        0.1049
     14 C          15.3251   -3.9980    0.0000 C.3     1  UNL1        0.1403
     15 C          13.7953   -3.4980    0.0000 C.ar    1  UNL1        0.0106
     16 C          13.7953   -4.4980    0.0000 C.ar    1  UNL1        0.1255
     17 C          16.3251   -3.9980    0.0000 C.ar    1  UNL1       -0.0061
     18 C          15.0521   -2.2428    0.0000 C.2     1  UNL1        0.2245
     19 C          12.9292   -2.9980    0.0000 C.ar    1  UNL1       -0.0471
     20 C          12.9292   -4.9980    0.0000 C.ar    1  UNL1       -0.0191
     21 C          12.0632   -3.4980    0.0000 C.ar    1  UNL1       -0.0244
     22 C          16.8251   -4.8640    0.0000 C.ar    1  UNL1       -0.0516
     23 C          16.8251   -3.1320    0.0000 C.ar    1  UNL1       -0.0516
     24 C          12.0632   -4.4980    0.0000 C.ar    1  UNL1       -0.0511
     25 C          14.6950   -0.5479    0.0000 C.3     1  UNL1        0.0117
     26 C          14.0271    0.1964    0.0000 C.3     1  UNL1       -0.0344
     27 C          17.8251   -4.8640    0.0000 C.ar    1  UNL1       -0.0198
     28 C          17.8251   -3.1320    0.0000 C.ar    1  UNL1       -0.0198
     29 C          11.1972   -2.9980    0.0000 C.2     1  UNL1       -0.0497
     30 C          14.3378    1.1469    0.0000 C.3     1  UNL1       -0.0172
     31 C          18.3251   -3.9980    0.0000 C.ar    1  UNL1        0.1169
     32 C          13.6699    1.8912    0.0000 C.3     1  UNL1        0.1047
     33 C          10.3312   -3.4980    0.0000 C.2     1  UNL1        0.0007
     34 C           9.4651   -2.9980    0.0000 C.2     1  UNL1        0.2369
     35 C           7.7331   -2.9980    0.0000 C.3     1  UNL1        0.0120
     36 C           6.8671   -3.4980    0.0000 C.3     1  UNL1       -0.0344
     37 C           6.0010   -2.9980    0.0000 C.3     1  UNL1       -0.0172
     38 C           5.1350   -3.4980    0.0000 C.3     1  UNL1        0.1047
     39 C          13.3128    3.5860    0.0000 C.cat   1  UNL1        0.3765
     40 C           3.4030   -3.4980    0.0000 C.cat   1  UNL1        0.3765
     41 H          14.3040   -2.7539    0.0000 H       1  UNL1        0.0484
     42 H          15.6068   -3.4457    0.0000 H       1  UNL1        0.0795
     43 H          12.9292   -2.3780    0.0000 H       1  UNL1        0.0628
     44 H          12.9292   -5.6180    0.0000 H       1  UNL1        0.0654
     45 H          13.7776   -1.6263    0.0000 H       1  UNL1        0.1487
     46 H          16.5151   -5.4010    0.0000 H       1  UNL1        0.0623
     47 H          16.5151   -2.5950    0.0000 H       1  UNL1        0.0623
     48 H          11.5263   -4.8080    0.0000 H       1  UNL1        0.0625
     49 H          15.2419   -0.8399    0.0000 H       1  UNL1        0.0462
     50 H          15.0775   -0.0600    0.0000 H       1  UNL1        0.0462
     51 H          13.4802    0.4884    0.0000 H       1  UNL1        0.0281
     52 H          13.6446   -0.2915    0.0000 H       1  UNL1        0.0281
     53 H          18.1351   -5.4010    0.0000 H       1  UNL1        0.0654
     54 H          18.1351   -2.5950    0.0000 H       1  UNL1        0.0654
     55 H          11.1972   -2.3780    0.0000 H       1  UNL1        0.0625
     56 H          14.8847    0.8549    0.0000 H       1  UNL1        0.0297
     57 H          14.7203    1.6348    0.0000 H       1  UNL1        0.0297
     58 H          13.1230    2.1832    0.0000 H       1  UNL1        0.0693
     59 H          13.2874    1.4033    0.0000 H       1  UNL1        0.0693
     60 H          10.3312   -4.1180    0.0000 H       1  UNL1        0.0669
     61 H          19.6351   -4.5349    0.0000 H       1  UNL1        0.2921
     62 H           8.1316   -2.5231    0.0000 H       1  UNL1        0.0462
     63 H           7.3346   -2.5231    0.0000 H       1  UNL1        0.0462
     64 H           6.4685   -3.9730    0.0000 H       1  UNL1        0.0281
     65 H           7.2656   -3.9730    0.0000 H       1  UNL1        0.0281
     66 H           8.5991   -4.1180    0.0000 H       1  UNL1        0.1490
     67 H           6.3996   -2.5231    0.0000 H       1  UNL1        0.0297
     68 H           5.6025   -2.5231    0.0000 H       1  UNL1        0.0297
     69 H           4.7365   -3.9730    0.0000 H       1  UNL1        0.0693
     70 H           5.5335   -3.9730    0.0000 H       1  UNL1        0.0693
     71 H          13.2094    4.9980    0.0000 H       1  UNL1        0.2546
     72 H          14.2301    4.6644    0.0000 H       1  UNL1        0.2546
     73 H          11.9202    3.8413    0.0000 H       1  UNL1        0.2546
     74 H          12.1416    2.7905    0.0000 H       1  UNL1        0.2546
     75 H           2.0000   -3.3080    0.0000 H       1  UNL1        0.2546
     76 H           2.5369   -2.3780    0.0000 H       1  UNL1        0.2546
     77 H           2.8660   -4.8080    0.0000 H       1  UNL1        0.2546
     78 H           3.9399   -4.8080    0.0000 H       1  UNL1        0.2546
@<TRIPOS>BOND
     1     1    14    1
     2     1    16    1
     3     2    18    2
     4     3    31    1
     5     3    61    1
     6     4    34    2
     7     5    18   am
     8     5    25    1
     9     5    45    1
    10     6    34   am
    11     6    35    1
    12     6    66    1
    13     7    32    1
    14     7    39    2
    15     8    38    1
    16     8    40    2
    17     9    39    1
    18     9    71    1
    19     9    72    1
    20    10    39    1
    21    10    73    1
    22    10    74    1
    23    11    40    1
    24    11    75    1
    25    11    76    1
    26    12    40    1
    27    12    77    1
    28    12    78    1
    29    13    14    1
    30    13    15    1
    31    13    18    1
    32    13    41    1
    33    14    17    1
    34    14    42    1
    35    15    16   ar
    36    15    19   ar
    37    16    20   ar
    38    17    22   ar
    39    17    23   ar
    40    19    21   ar
    41    19    43    1
    42    20    24   ar
    43    20    44    1
    44    21    24   ar
    45    21    29    1
    46    22    27   ar
    47    22    46    1
    48    23    28   ar
    49    23    47    1
    50    24    48    1
    51    25    26    1
    52    25    49    1
    53    25    50    1
    54    26    30    1
    55    26    51    1
    56    26    52    1
    57    27    31   ar
    58    27    53    1
    59    28    31   ar
    60    28    54    1
    61    29    33    2
    62    29    55    1
    63    30    32    1
    64    30    56    1
    65    30    57    1
    66    32    58    1
    67    32    59    1
    68    33    34    1
    69    33    60    1
    70    35    36    1
    71    35    62    1
    72    35    63    1
    73    36    37    1
    74    36    64    1
    75    36    65    1
    76    37    38    1
    77    37    67    1
    78    37    68    1
    79    38    69    1
    80    38    70    1
