@<TRIPOS>MOLECULE
IMPHY017948
 11 12 0 0 0
SMALL
GASTEIGER

@<TRIPOS>ATOM
      1 O           5.5443   -1.1824    0.0000 O.3     1  UNL1       -0.3512
      2 C           4.5981    0.1224    0.0000 C.3     1  UNL1        0.0485
      3 C           4.5981   -0.8776    0.0000 C.3     1  UNL1        0.1234
      4 C           3.7321    0.6224    0.0000 C.3     1  UNL1        0.0109
      5 C           3.7321   -1.3776    0.0000 C.3     1  UNL1        0.0519
      6 C           5.5443    0.4271    0.0000 C.2     1  UNL1       -0.0129
      7 C           2.8660    0.1224    0.0000 C.3     1  UNL1        0.0225
      8 C           2.8660   -0.8776    0.0000 C.2     1  UNL1       -0.0418
      9 C           6.1279   -0.3776    0.0000 C.3     1  UNL1        0.1644
     10 C           5.8550    1.3776    0.0000 C.2     1  UNL1       -0.0066
     11 C           2.0000   -1.3776    0.0000 C.2     1  UNL1       -0.0091
@<TRIPOS>BOND
     1     1     3    1
     2     1     9    1
     3     2     3    1
     4     2     4    1
     5     2     6    1
     6     3     5    1
     7     4     7    1
     8     5     8    1
     9     6     9    1
    10     6    10    2
    11     7     8    1
    12     8    11    2
