@<TRIPOS>MOLECULE
IMPHY008220
 177 186 0 0 0
SMALL
GASTEIGER

@<TRIPOS>ATOM
      1 O           7.7331   -6.1525    0.0000 O.3     1  UNL1       -0.3449
      2 O          10.5272    0.9260    0.0000 O.3     1  UNL1       -0.3906
      3 O           9.4869    3.1269    0.0000 O.3     1  UNL1       -0.4318
      4 O          10.4812    2.3120    0.0000 O.2     1  UNL1       -0.2500
      5 O           6.0010   -6.1525    0.0000 O.3     1  UNL1       -0.3431
      6 O           7.7331   -8.1525    0.0000 O.3     1  UNL1       -0.3841
      7 O          11.2188    3.1469    0.0000 O.3     1  UNL1       -0.3368
      8 O           6.0010   -9.1525    0.0000 O.3     1  UNL1       -0.3864
      9 O           4.2690   -8.1525    0.0000 O.3     1  UNL1       -0.3402
     10 O           9.4638    5.1268    0.0000 O.3     1  UNL1       -0.3366
     11 O          11.1841    6.1467    0.0000 O.3     1  UNL1       -0.3864
     12 O          12.9276    5.1668    0.0000 O.3     1  UNL1       -0.3869
     13 O          10.3124    6.6367    0.0000 O.3     1  UNL1       -0.3431
     14 O           5.1350   -9.6525    0.0000 O.3     1  UNL1       -0.3461
     15 O           2.5369   -9.1525    0.0000 O.3     1  UNL1       -0.3841
     16 O           7.7203    6.1067    0.0000 O.3     1  UNL1       -0.3841
     17 O           7.6971    8.1066    0.0000 O.3     1  UNL1       -0.3864
     18 O           2.5369  -11.1525    0.0000 O.3     1  UNL1       -0.3864
     19 O           9.4175    9.1265    0.0000 O.3     1  UNL1       -0.3402
     20 O           4.2690  -12.1525    0.0000 O.3     1  UNL1       -0.3869
     21 O          11.1494    9.1465    0.0000 O.3     1  UNL1       -0.3405
     22 O           9.3944   11.1264    0.0000 O.3     1  UNL1       -0.3841
     23 O          11.1148   12.1463    0.0000 O.3     1  UNL1       -0.3864
     24 O          12.8583   11.1664    0.0000 O.3     1  UNL1       -0.3865
     25 O          13.7416    9.6766    0.0000 O.3     1  UNL1       -0.3924
     26 C           8.6342   -1.4523    0.0000 C.3     1  UNL1       -0.0193
     27 C           7.7701   -1.9556    0.0000 C.3     1  UNL1       -0.0257
     28 C           7.7580   -2.9972    0.0000 C.3     1  UNL1       -0.0250
     29 C           8.6303   -0.4523    0.0000 C.3     1  UNL1       -0.0028
     30 C           8.6581   -3.5215    0.0000 C.3     1  UNL1       -0.0278
     31 C           9.5461   -1.9556    0.0000 C.3     1  UNL1       -0.0463
     32 C           9.5581   -2.9972    0.0000 C.3     1  UNL1       -0.0486
     33 C           8.6706   -4.6064    0.0000 C.3     1  UNL1       -0.0052
     34 C           7.7624    0.0443    0.0000 C.2     1  UNL1       -0.0627
     35 C           7.7423    1.0858    0.0000 C.3     1  UNL1       -0.0007
     36 C           6.9021   -1.4590    0.0000 C.3     1  UNL1       -0.0306
     37 C           6.8081   -3.5215    0.0000 C.3     1  UNL1       -0.0447
     38 C           9.5383    0.0580    0.0000 C.3     1  UNL1       -0.0162
     39 C           8.6383    1.6170    0.0000 C.3     1  UNL1        0.1000
     40 C           9.5424    1.0997    0.0000 C.3     1  UNL1        0.0723
     41 C           9.6183   -1.2749    0.0000 C.3     1  UNL1       -0.0585
     42 C           7.7331   -5.1525    0.0000 C.3     1  UNL1        0.0672
     43 C           6.8983   -0.4590    0.0000 C.2     1  UNL1       -0.0836
     44 C           6.8939   -2.4939    0.0000 C.3     1  UNL1       -0.0590
     45 C           6.7956   -4.6064    0.0000 C.3     1  UNL1       -0.0255
     46 C           9.6158   -0.6222    0.0000 C.3     1  UNL1       -0.0552
     47 C           6.7884    1.6027    0.0000 C.3     1  UNL1       -0.0402
     48 C           8.6424    2.7020    0.0000 C.3     1  UNL1       -0.0338
     49 C           6.7674    2.6875    0.0000 C.3     1  UNL1       -0.0343
     50 C           9.6706   -4.5987    0.0000 C.3     1  UNL1       -0.0572
     51 C           9.1773   -5.4685    0.0000 C.3     1  UNL1       -0.0572
     52 C           7.7007    3.2408    0.0000 C.3     1  UNL1       -0.0467
     53 C           9.4985    2.1270    0.0000 C.2     1  UNL1        0.3186
     54 C           6.2542    3.5457    0.0000 C.3     1  UNL1       -0.0598
     55 C           5.7676    2.6721    0.0000 C.3     1  UNL1       -0.0598
     56 C           6.8671   -6.6525    0.0000 C.3     1  UNL1        0.1881
     57 C           6.8671   -7.6525    0.0000 C.3     1  UNL1        0.1341
     58 C          10.3471    3.6369    0.0000 C.3     1  UNL1        0.2338
     59 C           6.0010   -8.1525    0.0000 C.3     1  UNL1        0.1143
     60 C           5.1350   -6.6525    0.0000 C.3     1  UNL1        0.0877
     61 C           5.1350   -7.6525    0.0000 C.3     1  UNL1        0.1160
     62 C          10.3355    4.6368    0.0000 C.3     1  UNL1        0.1520
     63 C          11.1957    5.1468    0.0000 C.3     1  UNL1        0.1152
     64 C           4.2690   -6.1525    0.0000 C.3     1  UNL1       -0.0361
     65 C          12.0790    3.6569    0.0000 C.3     1  UNL1        0.0802
     66 C          12.0675    4.6569    0.0000 C.3     1  UNL1        0.1070
     67 C           4.2690   -9.1525    0.0000 C.3     1  UNL1        0.1880
     68 C           9.4522    6.1267    0.0000 C.3     1  UNL1        0.1885
     69 C           3.4030   -9.6525    0.0000 C.3     1  UNL1        0.1341
     70 C           8.5805    6.6167    0.0000 C.3     1  UNL1        0.1341
     71 C           8.5689    7.6166    0.0000 C.3     1  UNL1        0.1143
     72 C           3.4030  -10.6525    0.0000 C.3     1  UNL1        0.1137
     73 C          10.3008    7.6366    0.0000 C.3     1  UNL1        0.0877
     74 C           9.4291    8.1266    0.0000 C.3     1  UNL1        0.1160
     75 C           5.1350  -10.6525    0.0000 C.3     1  UNL1        0.0792
     76 C           4.2690  -11.1525    0.0000 C.3     1  UNL1        0.1069
     77 C          11.1610    8.1466    0.0000 C.3     1  UNL1       -0.0361
     78 C          10.2777    9.6365    0.0000 C.3     1  UNL1        0.1884
     79 C          10.2661   10.6364    0.0000 C.3     1  UNL1        0.1341
     80 C          11.1263   11.1464    0.0000 C.3     1  UNL1        0.1141
     81 C          12.0096    9.6565    0.0000 C.3     1  UNL1        0.1130
     82 C          11.9981   10.6565    0.0000 C.3     1  UNL1        0.1119
     83 C          12.8814    9.1666    0.0000 C.3     1  UNL1        0.0730
     84 H           8.3058   -2.2677    0.0000 H       1  UNL1        0.0315
     85 H           9.1974   -3.8273    0.0000 H       1  UNL1        0.0312
     86 H          10.1581   -2.0547    0.0000 H       1  UNL1        0.0271
     87 H           9.7484   -1.3696    0.0000 H       1  UNL1        0.0271
     88 H           9.7739   -3.5784    0.0000 H       1  UNL1        0.0268
     89 H          10.1677   -2.8840    0.0000 H       1  UNL1        0.0268
     90 H           7.2126    0.7635    0.0000 H       1  UNL1        0.0357
     91 H           6.2911   -1.3537    0.0000 H       1  UNL1        0.0310
     92 H           6.6923   -2.0424    0.0000 H       1  UNL1        0.0310
     93 H           6.6058   -2.9354    0.0000 H       1  UNL1        0.0271
     94 H           6.1961   -3.6205    0.0000 H       1  UNL1        0.0271
     95 H           9.7451   -0.5265    0.0000 H       1  UNL1        0.0299
     96 H          10.1496    0.1618    0.0000 H       1  UNL1        0.0299
     97 H           9.7533    1.6827    0.0000 H       1  UNL1        0.0605
     98 H           9.7283   -1.8850    0.0000 H       1  UNL1        0.0235
     99 H          10.2284   -1.1648    0.0000 H       1  UNL1        0.0235
    100 H           9.5083   -0.6647    0.0000 H       1  UNL1        0.0235
    101 H           8.2706   -5.4615    0.0000 H       1  UNL1        0.0602
    102 H           6.3601   -0.1511    0.0000 H       1  UNL1        0.0572
    103 H           7.2060   -1.9581    0.0000 H       1  UNL1        0.0235
    104 H           6.3582   -2.1818    0.0000 H       1  UNL1        0.0235
    105 H           6.5818   -3.0296    0.0000 H       1  UNL1        0.0235
    106 H           6.1860   -4.4933    0.0000 H       1  UNL1        0.0290
    107 H           6.5798   -5.1876    0.0000 H       1  UNL1        0.0290
    108 H           9.5105   -1.2332    0.0000 H       1  UNL1        0.0238
    109 H          10.2268   -0.7275    0.0000 H       1  UNL1        0.0238
    110 H           9.7211   -0.0112    0.0000 H       1  UNL1        0.0238
    111 H           6.1756    1.6970    0.0000 H       1  UNL1        0.0276
    112 H           6.5906    1.0151    0.0000 H       1  UNL1        0.0276
    113 H           9.2529    2.5935    0.0000 H       1  UNL1        0.0277
    114 H           8.8538    3.2849    0.0000 H       1  UNL1        0.0277
    115 H           9.6754   -5.2187    0.0000 H       1  UNL1        0.0236
    116 H          10.2906   -4.5939    0.0000 H       1  UNL1        0.0236
    117 H           9.6658   -3.9787    0.0000 H       1  UNL1        0.0236
    118 H           8.6428   -5.7827    0.0000 H       1  UNL1        0.0236
    119 H           9.4914   -6.0031    0.0000 H       1  UNL1        0.0236
    120 H           9.7118   -5.1544    0.0000 H       1  UNL1        0.0236
    121 H           8.0962    3.7184    0.0000 H       1  UNL1        0.0271
    122 H           7.2980    3.7122    0.0000 H       1  UNL1        0.0271
    123 H          10.7392    0.3434    0.0000 H       1  UNL1        0.2098
    124 H           6.7862    3.8640    0.0000 H       1  UNL1        0.0235
    125 H           5.9359    4.0778    0.0000 H       1  UNL1        0.0235
    126 H           5.7220    3.2275    0.0000 H       1  UNL1        0.0235
    127 H           5.7580    3.2920    0.0000 H       1  UNL1        0.0235
    128 H           5.1476    2.6626    0.0000 H       1  UNL1        0.0235
    129 H           5.7771    2.0522    0.0000 H       1  UNL1        0.0235
    130 H           7.4040   -6.9625    0.0000 H       1  UNL1        0.0937
    131 H           6.8671   -8.2725    0.0000 H       1  UNL1        0.0671
    132 H          10.3542    3.0169    0.0000 H       1  UNL1        0.1085
    133 H           5.4641   -8.4625    0.0000 H       1  UNL1        0.0648
    134 H           5.1350   -6.0325    0.0000 H       1  UNL1        0.0621
    135 H           4.5981   -7.3425    0.0000 H       1  UNL1        0.0650
    136 H          10.3283    5.2568    0.0000 H       1  UNL1        0.0687
    137 H           8.2700   -7.8425    0.0000 H       1  UNL1        0.2101
    138 H          11.7290    5.4630    0.0000 H       1  UNL1        0.0648
    139 H           4.5790   -5.6156    0.0000 H       1  UNL1        0.0255
    140 H           3.7320   -5.8425    0.0000 H       1  UNL1        0.0255
    141 H           3.9590   -6.6895    0.0000 H       1  UNL1        0.0255
    142 H          12.2978    3.0768    0.0000 H       1  UNL1        0.0588
    143 H          12.6883    3.7716    0.0000 H       1  UNL1        0.0588
    144 H          12.6079    4.3531    0.0000 H       1  UNL1        0.0643
    145 H           6.5380   -9.4625    0.0000 H       1  UNL1        0.2100
    146 H           3.7320   -8.8425    0.0000 H       1  UNL1        0.0937
    147 H           8.9189    5.8105    0.0000 H       1  UNL1        0.0938
    148 H          11.7175    6.4629    0.0000 H       1  UNL1        0.2100
    149 H          13.4681    4.8631    0.0000 H       1  UNL1        0.2100
    150 H           3.9399   -9.9625    0.0000 H       1  UNL1        0.0671
    151 H           8.0400    6.9204    0.0000 H       1  UNL1        0.0671
    152 H           8.5617    8.2366    0.0000 H       1  UNL1        0.0648
    153 H           3.4030  -11.2725    0.0000 H       1  UNL1        0.0647
    154 H          10.8413    7.3328    0.0000 H       1  UNL1        0.0621
    155 H           9.9624    8.4428    0.0000 H       1  UNL1        0.0650
    156 H           5.3471  -11.2351    0.0000 H       1  UNL1        0.0587
    157 H           5.7456  -10.5449    0.0000 H       1  UNL1        0.0587
    158 H           4.8059  -11.4625    0.0000 H       1  UNL1        0.0643
    159 H           2.0000   -9.4625    0.0000 H       1  UNL1        0.2101
    160 H           7.1798    6.4104    0.0000 H       1  UNL1        0.2101
    161 H          11.4772    7.6133    0.0000 H       1  UNL1        0.0255
    162 H          11.6943    8.4628    0.0000 H       1  UNL1        0.0255
    163 H          10.8448    8.6799    0.0000 H       1  UNL1        0.0255
    164 H           7.6900    8.7265    0.0000 H       1  UNL1        0.2100
    165 H           2.5369  -11.7725    0.0000 H       1  UNL1        0.2100
    166 H           4.8059  -12.4625    0.0000 H       1  UNL1        0.2100
    167 H          10.2849    9.0165    0.0000 H       1  UNL1        0.0938
    168 H          10.2590   11.2564    0.0000 H       1  UNL1        0.0671
    169 H          11.6596   11.4626    0.0000 H       1  UNL1        0.0648
    170 H          12.0168    9.0366    0.0000 H       1  UNL1        0.0647
    171 H          12.5386   10.3527    0.0000 H       1  UNL1        0.0647
    172 H           9.3872   11.7463    0.0000 H       1  UNL1        0.2101
    173 H          12.4884    8.6870    0.0000 H       1  UNL1        0.0584
    174 H          13.2854    8.6963    0.0000 H       1  UNL1        0.0584
    175 H          11.6481   12.4625    0.0000 H       1  UNL1        0.2100
    176 H          12.8511   11.7864    0.0000 H       1  UNL1        0.2100
    177 H          14.2821    9.3728    0.0000 H       1  UNL1        0.2095
@<TRIPOS>BOND
     1     1    42    1
     2     1    56    1
     3     2    40    1
     4     2   123    1
     5     3    53    1
     6     3    58    1
     7     4    53    2
     8     5    56    1
     9     5    60    1
    10     6    57    1
    11     6   137    1
    12     7    58    1
    13     7    65    1
    14     8    59    1
    15     8   145    1
    16     9    61    1
    17     9    67    1
    18    10    62    1
    19    10    68    1
    20    11    63    1
    21    11   148    1
    22    12    66    1
    23    12   149    1
    24    13    68    1
    25    13    73    1
    26    14    67    1
    27    14    75    1
    28    15    69    1
    29    15   159    1
    30    16    70    1
    31    16   160    1
    32    17    71    1
    33    17   164    1
    34    18    72    1
    35    18   165    1
    36    19    74    1
    37    19    78    1
    38    20    76    1
    39    20   166    1
    40    21    78    1
    41    21    81    1
    42    22    79    1
    43    22   172    1
    44    23    80    1
    45    23   175    1
    46    24    82    1
    47    24   176    1
    48    25    83    1
    49    25   177    1
    50    26    27    1
    51    26    29    1
    52    26    31    1
    53    26    41    1
    54    27    28    1
    55    27    36    1
    56    27    84    1
    57    28    30    1
    58    28    37    1
    59    28    44    1
    60    29    34    1
    61    29    38    1
    62    29    46    1
    63    30    32    1
    64    30    33    1
    65    30    85    1
    66    31    32    1
    67    31    86    1
    68    31    87    1
    69    32    88    1
    70    32    89    1
    71    33    42    1
    72    33    50    1
    73    33    51    1
    74    34    35    1
    75    34    43    2
    76    35    39    1
    77    35    47    1
    78    35    90    1
    79    36    43    1
    80    36    91    1
    81    36    92    1
    82    37    45    1
    83    37    93    1
    84    37    94    1
    85    38    40    1
    86    38    95    1
    87    38    96    1
    88    39    40    1
    89    39    48    1
    90    39    53    1
    91    40    97    1
    92    41    98    1
    93    41    99    1
    94    41   100    1
    95    42    45    1
    96    42   101    1
    97    43   102    1
    98    44   103    1
    99    44   104    1
   100    44   105    1
   101    45   106    1
   102    45   107    1
   103    46   108    1
   104    46   109    1
   105    46   110    1
   106    47    49    1
   107    47   111    1
   108    47   112    1
   109    48    52    1
   110    48   113    1
   111    48   114    1
   112    49    52    1
   113    49    54    1
   114    49    55    1
   115    50   115    1
   116    50   116    1
   117    50   117    1
   118    51   118    1
   119    51   119    1
   120    51   120    1
   121    52   121    1
   122    52   122    1
   123    54   124    1
   124    54   125    1
   125    54   126    1
   126    55   127    1
   127    55   128    1
   128    55   129    1
   129    56    57    1
   130    56   130    1
   131    57    59    1
   132    57   131    1
   133    58    62    1
   134    58   132    1
   135    59    61    1
   136    59   133    1
   137    60    61    1
   138    60    64    1
   139    60   134    1
   140    61   135    1
   141    62    63    1
   142    62   136    1
   143    63    66    1
   144    63   138    1
   145    64   139    1
   146    64   140    1
   147    64   141    1
   148    65    66    1
   149    65   142    1
   150    65   143    1
   151    66   144    1
   152    67    69    1
   153    67   146    1
   154    68    70    1
   155    68   147    1
   156    69    72    1
   157    69   150    1
   158    70    71    1
   159    70   151    1
   160    71    74    1
   161    71   152    1
   162    72    76    1
   163    72   153    1
   164    73    74    1
   165    73    77    1
   166    73   154    1
   167    74   155    1
   168    75    76    1
   169    75   156    1
   170    75   157    1
   171    76   158    1
   172    77   161    1
   173    77   162    1
   174    77   163    1
   175    78    79    1
   176    78   167    1
   177    79    80    1
   178    79   168    1
   179    80    82    1
   180    80   169    1
   181    81    82    1
   182    81    83    1
   183    81   170    1
   184    82   171    1
   185    83   173    1
   186    83   174    1
