@<TRIPOS>MOLECULE
IMPHY015967
 18 17 0 0 0
SMALL
GASTEIGER

@<TRIPOS>ATOM
      1 S           5.4641    0.2500    0.0000 S.3     1  UNL1       -0.0607
      2 S           4.5981   -0.2500    0.0000 S.3     1  UNL1       -0.0607
      3 C           7.1962    0.2500    0.0000 C.2     1  UNL1       -0.0801
      4 C           8.0622   -0.2500    0.0000 C.3     1  UNL1       -0.0460
      5 C           2.8660   -0.2500    0.0000 C.2     1  UNL1       -0.0801
      6 C           2.0000    0.2500    0.0000 C.3     1  UNL1       -0.0460
      7 C           6.3301   -0.2500    0.0000 C.2     1  UNL1       -0.0217
      8 C           3.7320    0.2500    0.0000 C.2     1  UNL1       -0.0217
      9 H           7.1962    0.8700    0.0000 H       1  UNL1        0.0574
     10 H           7.7522   -0.7869    0.0000 H       1  UNL1        0.0272
     11 H           8.5991   -0.5600    0.0000 H       1  UNL1        0.0272
     12 H           8.3722    0.2869    0.0000 H       1  UNL1        0.0272
     13 H           2.8660   -0.8700    0.0000 H       1  UNL1        0.0574
     14 H           2.3100    0.7869    0.0000 H       1  UNL1        0.0272
     15 H           1.4631    0.5600    0.0000 H       1  UNL1        0.0272
     16 H           1.6900   -0.2869    0.0000 H       1  UNL1        0.0272
     17 H           6.3301   -0.8700    0.0000 H       1  UNL1        0.0695
     18 H           3.7320    0.8700    0.0000 H       1  UNL1        0.0695
@<TRIPOS>BOND
     1     1     2    1
     2     1     7    1
     3     2     8    1
     4     3     4    1
     5     3     7    2
     6     3     9    1
     7     4    10    1
     8     4    11    1
     9     4    12    1
    10     5     6    1
    11     5     8    2
    12     5    13    1
    13     6    14    1
    14     6    15    1
    15     6    16    1
    16     7    17    1
    17     8    18    1
