@<TRIPOS>MOLECULE
IMPHY006072
 46 51 0 0 0
SMALL
GASTEIGER

@<TRIPOS>ATOM
      1 O           8.5149    1.0265    0.0000 O.3     1  UNL1       -0.3429
      2 O           6.2344   -1.0268    0.0000 O.3     1  UNL1       -0.3429
      3 O           7.6117   -2.1486    0.0000 O.3     1  UNL1       -0.3666
      4 O           7.1300    2.1480    0.0000 O.3     1  UNL1       -0.3666
      5 O          12.1637   -0.1633    0.0000 O.3     1  UNL1       -0.4526
      6 O           2.5850    0.1508    0.0000 O.3     1  UNL1       -0.4526
      7 O          12.1637   -1.7727    0.0000 O.3     1  UNL1       -0.4526
      8 O           2.5822    1.7603    0.0000 O.3     1  UNL1       -0.4526
      9 C           7.7058   -0.3747    0.0000 C.3     1  UNL1        0.0505
     10 C           7.0367    0.3684    0.0000 C.3     1  UNL1        0.0505
     11 C           8.6194    0.0320    0.0000 C.3     1  UNL1        0.0946
     12 C           6.1296   -0.0383    0.0000 C.3     1  UNL1        0.0946
     13 C           7.2066   -1.2344    0.0000 C.3     1  UNL1        0.1629
     14 C           7.5367    1.2344    0.0000 C.3     1  UNL1        0.1629
     15 C           9.4854   -0.4680    0.0000 C.ar    1  UNL1       -0.0147
     16 C           5.2627    0.4602    0.0000 C.ar    1  UNL1       -0.0147
     17 C          10.3514    0.0320    0.0000 C.ar    1  UNL1       -0.0105
     18 C           4.3976   -0.0413    0.0000 C.ar    1  UNL1       -0.0105
     19 C           9.4854   -1.4680    0.0000 C.ar    1  UNL1       -0.0524
     20 C           5.2610    1.4602    0.0000 C.ar    1  UNL1       -0.0524
     21 C          11.2175   -0.4680    0.0000 C.ar    1  UNL1        0.1666
     22 C           3.5307    0.4572    0.0000 C.ar    1  UNL1        0.1666
     23 C          10.3514   -1.9680    0.0000 C.ar    1  UNL1       -0.0158
     24 C           4.3941    1.9587    0.0000 C.ar    1  UNL1       -0.0158
     25 C          11.2175   -1.4680    0.0000 C.ar    1  UNL1        0.1662
     26 C           3.5290    1.4572    0.0000 C.ar    1  UNL1        0.1662
     27 C          12.7473   -0.9680    0.0000 C.3     1  UNL1        0.2332
     28 C           2.0000    0.9546    0.0000 C.3     1  UNL1        0.2332
     29 H           6.6212    0.8286    0.0000 H       1  UNL1        0.0384
     30 H           8.1201   -0.8360    0.0000 H       1  UNL1        0.0384
     31 H           5.6101   -0.3766    0.0000 H       1  UNL1        0.0652
     32 H           9.1394    0.3697    0.0000 H       1  UNL1        0.0652
     33 H           6.9176    1.2669    0.0000 H       1  UNL1        0.0911
     34 H           7.8256   -1.2681    0.0000 H       1  UNL1        0.0911
     35 H           7.2464   -2.6496    0.0000 H       1  UNL1        0.2125
     36 H           7.4944    2.6496    0.0000 H       1  UNL1        0.2125
     37 H           4.3986   -0.6613    0.0000 H       1  UNL1        0.0659
     38 H          10.3514    0.6520    0.0000 H       1  UNL1        0.0659
     39 H           8.9485   -1.7780    0.0000 H       1  UNL1        0.0622
     40 H           5.7974    1.7711    0.0000 H       1  UNL1        0.0622
     41 H           4.3930    2.5787    0.0000 H       1  UNL1        0.0655
     42 H          10.3514   -2.5880    0.0000 H       1  UNL1        0.0655
     43 H           1.5384    1.3685    0.0000 H       1  UNL1        0.1166
     44 H           1.5398    0.5390    0.0000 H       1  UNL1        0.1166
     45 H          13.2082   -1.3827    0.0000 H       1  UNL1        0.1166
     46 H          13.2082   -0.5533    0.0000 H       1  UNL1        0.1166
@<TRIPOS>BOND
     1     1    11    1
     2     1    14    1
     3     2    12    1
     4     2    13    1
     5     3    13    1
     6     3    35    1
     7     4    14    1
     8     4    36    1
     9     5    21    1
    10     5    27    1
    11     6    22    1
    12     6    28    1
    13     7    25    1
    14     7    27    1
    15     8    26    1
    16     8    28    1
    17     9    10    1
    18     9    11    1
    19     9    13    1
    20     9    30    1
    21    10    12    1
    22    10    14    1
    23    10    29    1
    24    11    15    1
    25    11    32    1
    26    12    16    1
    27    12    31    1
    28    13    34    1
    29    14    33    1
    30    15    17   ar
    31    15    19   ar
    32    16    18   ar
    33    16    20   ar
    34    17    21   ar
    35    17    38    1
    36    18    22   ar
    37    18    37    1
    38    19    23   ar
    39    19    39    1
    40    20    24   ar
    41    20    40    1
    42    21    25   ar
    43    22    26   ar
    44    23    25   ar
    45    23    42    1
    46    24    26   ar
    47    24    41    1
    48    27    45    1
    49    27    46    1
    50    28    43    1
    51    28    44    1
