@<TRIPOS>MOLECULE
IMPHY002477
 73 78 0 0 0
SMALL
GASTEIGER

@<TRIPOS>ATOM
      1 O           5.5954   -2.9096    0.0000 O.3     1  UNL1       -0.3448
      2 O           3.9300   -1.8284    0.0000 O.3     1  UNL1       -0.3480
      3 O          11.0589   -1.1989    0.0000 O.3     1  UNL1       -0.3915
      4 O           5.7968    0.8252    0.0000 O.2     1  UNL1       -0.2968
      5 O          10.1833    3.5014    0.0000 O.3     1  UNL1       -0.3843
      6 O          12.0027    2.4696    0.0000 O.2     1  UNL1       -0.2947
      7 C           6.6628   -0.6748    0.0000 C.3     1  UNL1        0.0349
      8 C           7.5288   -1.1748    0.0000 C.3     1  UNL1       -0.0231
      9 C           8.3948   -0.6748    0.0000 C.3     1  UNL1       -0.0312
     10 C           5.9258   -1.3418    0.0000 C.3     1  UNL1        0.0052
     11 C           8.3948    0.3252    0.0000 C.3     1  UNL1       -0.0253
     12 C           6.3309   -2.2496    0.0000 C.3     1  UNL1        0.0664
     13 C           9.2888    0.8599    0.0000 C.3     1  UNL1       -0.0203
     14 C           7.3196   -2.1466    0.0000 C.3     1  UNL1       -0.0222
     15 C           4.9434   -1.4486    0.0000 C.3     1  UNL1        0.0164
     16 C          10.1949    0.3460    0.0000 C.3     1  UNL1       -0.0025
     17 C           7.5288    0.8252    0.0000 C.3     1  UNL1        0.0100
     18 C           9.2888   -1.2094    0.0000 C.3     1  UNL1       -0.0232
     19 C           6.6628    0.3252    0.0000 C.2     1  UNL1        0.1401
     20 C           4.7396   -2.4155    0.0000 C.3     1  UNL1        0.1732
     21 C          10.1949   -0.6956    0.0000 C.3     1  UNL1        0.0592
     22 C           5.7968   -0.1748    0.0000 C.3     1  UNL1       -0.0522
     23 C           9.2637    1.9446    0.0000 C.3     1  UNL1       -0.0139
     24 C           8.4189    1.3532    0.0000 C.3     1  UNL1       -0.0589
     25 C          11.1386    0.8813    0.0000 C.3     1  UNL1        0.0141
     26 C           4.6359   -3.4101    0.0000 C.3     1  UNL1        0.0020
     27 C           4.2723   -0.7071    0.0000 C.3     1  UNL1       -0.0572
     28 C          10.1949    2.5015    0.0000 C.3     1  UNL1        0.1135
     29 C          11.1386    1.9663    0.0000 C.2     1  UNL1        0.1619
     30 C           3.7227   -3.8176    0.0000 C.3     1  UNL1       -0.0435
     31 C           2.9132   -3.2306    0.0000 C.3     1  UNL1       -0.0201
     32 C           3.0169   -2.2359    0.0000 C.3     1  UNL1        0.0535
     33 C           2.0000   -3.6381    0.0000 C.3     1  UNL1       -0.0603
     34 H           8.2158   -1.6753    0.0000 H       1  UNL1        0.0314
     35 H           8.3883   -1.5247    0.0000 H       1  UNL1        0.0307
     36 H           5.5777   -0.5664    0.0000 H       1  UNL1        0.0339
     37 H           9.1342   -0.0941    0.0000 H       1  UNL1        0.0313
     38 H           6.6756   -3.0266    0.0000 H       1  UNL1        0.0600
     39 H           7.3187   -2.7666    0.0000 H       1  UNL1        0.0293
     40 H           7.9361   -2.2126    0.0000 H       1  UNL1        0.0293
     41 H           4.3448   -1.6103    0.0000 H       1  UNL1        0.0354
     42 H          10.9293   -0.0818    0.0000 H       1  UNL1        0.0335
     43 H           7.9274    1.3002    0.0000 H       1  UNL1        0.0345
     44 H           7.1303    1.3002    0.0000 H       1  UNL1        0.0345
     45 H           8.8842   -1.6792    0.0000 H       1  UNL1        0.0293
     46 H           9.6824   -1.6884    0.0000 H       1  UNL1        0.0293
     47 H          10.1913   -1.3156    0.0000 H       1  UNL1        0.0596
     48 H           6.1068    0.3622    0.0000 H       1  UNL1        0.0239
     49 H           5.2598    0.1352    0.0000 H       1  UNL1        0.0239
     50 H           5.4868   -0.7117    0.0000 H       1  UNL1        0.0239
     51 H           9.0412    2.5233    0.0000 H       1  UNL1        0.0300
     52 H           8.6555    1.8244    0.0000 H       1  UNL1        0.0300
     53 H           8.7248    1.8925    0.0000 H       1  UNL1        0.0235
     54 H           7.8796    1.6590    0.0000 H       1  UNL1        0.0235
     55 H           8.1131    0.8139    0.0000 H       1  UNL1        0.0235
     56 H          11.3477    0.2976    0.0000 H       1  UNL1        0.0346
     57 H          11.7495    0.9874    0.0000 H       1  UNL1        0.0346
     58 H           4.7864   -4.0116    0.0000 H       1  UNL1        0.0317
     59 H           5.2544   -3.3663    0.0000 H       1  UNL1        0.0317
     60 H           4.7320   -0.2911    0.0000 H       1  UNL1        0.0234
     61 H           3.8562   -0.2475    0.0000 H       1  UNL1        0.0234
     62 H           3.8126   -1.1232    0.0000 H       1  UNL1        0.0234
     63 H           9.6538    2.8042    0.0000 H       1  UNL1        0.0673
     64 H           3.2771   -4.2487    0.0000 H       1  UNL1        0.0270
     65 H           4.0699   -4.3313    0.0000 H       1  UNL1        0.0270
     66 H          11.0566   -1.8189    0.0000 H       1  UNL1        0.2098
     67 H           2.4113   -2.8666    0.0000 H       1  UNL1        0.0320
     68 H           2.8664   -1.6345    0.0000 H       1  UNL1        0.0563
     69 H           2.3984   -2.2797    0.0000 H       1  UNL1        0.0563
     70 H          10.7166    3.8176    0.0000 H       1  UNL1        0.2104
     71 H           1.7473   -3.0719    0.0000 H       1  UNL1        0.0233
     72 H           1.4338   -3.8908    0.0000 H       1  UNL1        0.0233
     73 H           2.2527   -4.2043    0.0000 H       1  UNL1        0.0233
@<TRIPOS>BOND
     1     1    12    1
     2    20     1    1
     3     2    20    1
     4     2    32    1
     5     3    21    1
     6     3    66    1
     7     4    19    2
     8     5    28    1
     9     5    70    1
    10     6    29    2
    11     7     8    1
    12     7    10    1
    13     7    19    1
    14     7    22    1
    15     8     9    1
    16     8    14    1
    17     8    34    1
    18     9    11    1
    19     9    18    1
    20     9    35    1
    21    10    12    1
    22    10    15    1
    23    10    36    1
    24    11    13    1
    25    11    17    1
    26    11    37    1
    27    12    14    1
    28    12    38    1
    29    13    16    1
    30    13    23    1
    31    13    24    1
    32    14    39    1
    33    14    40    1
    34    15    20    1
    35    15    27    1
    36    15    41    1
    37    16    21    1
    38    16    25    1
    39    16    42    1
    40    17    19    1
    41    17    43    1
    42    17    44    1
    43    18    21    1
    44    18    45    1
    45    18    46    1
    46    20    26    1
    47    21    47    1
    48    22    48    1
    49    22    49    1
    50    22    50    1
    51    23    28    1
    52    23    51    1
    53    23    52    1
    54    24    53    1
    55    24    54    1
    56    24    55    1
    57    25    29    1
    58    25    56    1
    59    25    57    1
    60    26    30    1
    61    26    58    1
    62    26    59    1
    63    27    60    1
    64    27    61    1
    65    27    62    1
    66    28    29    1
    67    28    63    1
    68    30    31    1
    69    30    64    1
    70    30    65    1
    71    31    32    1
    72    31    33    1
    73    31    67    1
    74    32    68    1
    75    32    69    1
    76    33    71    1
    77    33    72    1
    78    33    73    1
