@<TRIPOS>MOLECULE
IMPHY015961
 22 22 0 0 0
SMALL
GASTEIGER

@<TRIPOS>ATOM
      1 O           2.8090    0.3784    0.0000 O.2     1  UNL1       -0.4675
      2 C           4.5691    0.6571    0.0000 C.3     1  UNL1        0.0237
      3 C           3.6180    0.9661    0.0000 C.ar    1  UNL1        0.1086
      4 C           4.7770   -0.3210    0.0000 C.2     1  UNL1       -0.0807
      5 C           5.9360   -1.6082    0.0000 C.3     1  UNL1       -0.0376
      6 C           5.7281   -0.6300    0.0000 C.2     1  UNL1       -0.0878
      7 C           3.3090    1.9172    0.0000 C.ar    1  UNL1       -0.0204
      8 C           6.8870   -1.9172    0.0000 C.3     1  UNL1       -0.0618
      9 C           2.3090    1.9172    0.0000 C.ar    1  UNL1       -0.0236
     10 C           2.0000    0.9661    0.0000 C.ar    1  UNL1        0.0921
     11 H           5.1887    0.6788    0.0000 H       1  UNL1        0.0386
     12 H           4.6554    1.2711    0.0000 H       1  UNL1        0.0386
     13 H           4.3162   -0.7359    0.0000 H       1  UNL1        0.0573
     14 H           5.3164   -1.6298    0.0000 H       1  UNL1        0.0305
     15 H           5.8497   -2.2222    0.0000 H       1  UNL1        0.0305
     16 H           6.1888   -0.2152    0.0000 H       1  UNL1        0.0569
     17 H           3.6734    2.4188    0.0000 H       1  UNL1        0.0652
     18 H           6.6954   -2.5069    0.0000 H       1  UNL1        0.0233
     19 H           7.4767   -2.1088    0.0000 H       1  UNL1        0.0233
     20 H           7.0786   -1.3276    0.0000 H       1  UNL1        0.0233
     21 H           1.9446    2.4188    0.0000 H       1  UNL1        0.0649
     22 H           1.4103    0.7746    0.0000 H       1  UNL1        0.1029
@<TRIPOS>BOND
     1     1     3   ar
     2     1    10   ar
     3     2     3    1
     4     2     4    1
     5     2    11    1
     6     2    12    1
     7     3     7   ar
     8     4     6    2
     9     4    13    1
    10     5     6    1
    11     5     8    1
    12     5    14    1
    13     5    15    1
    14     6    16    1
    15     7     9   ar
    16     7    17    1
    17     8    18    1
    18     8    19    1
    19     8    20    1
    20     9    10   ar
    21     9    21    1
    22    10    22    1
