@<TRIPOS>MOLECULE
IMPHY001530
 45 48 0 0 0
SMALL
GASTEIGER

@<TRIPOS>ATOM
      1 O           4.0981   -2.2867    0.0000 O.3     1  UNL1       -0.4509
      2 O           6.3580    0.2175    0.0000 O.2     1  UNL1       -0.4539
      3 O           2.8660    0.2521    0.0000 O.3     1  UNL1       -0.4944
      4 O           2.8380   -1.0266    0.0000 O.2     1  UNL1       -0.2449
      5 O           6.3465    3.2867    0.0000 O.2     1  UNL1       -0.2870
      6 C           5.0981   -2.2867    0.0000 C.3     1  UNL1        0.1274
      7 C           4.5981   -0.7479    0.0000 C.2     1  UNL1        0.0730
      8 C           5.4071   -1.3357    0.0000 C.2     1  UNL1       -0.0267
      9 C           4.5981    0.2521    0.0000 C.ar    1  UNL1        0.0733
     10 C           5.0981   -3.2867    0.0000 C.3     1  UNL1       -0.0213
     11 C           6.0491   -2.5957    0.0000 C.3     1  UNL1       -0.0213
     12 C           5.4641    0.7521    0.0000 C.ar    1  UNL1        0.1506
     13 C           3.7891   -1.3357    0.0000 C.2     1  UNL1        0.3406
     14 C           5.4641    1.7521    0.0000 C.ar    1  UNL1        0.0648
     15 C           3.7320    0.7521    0.0000 C.ar    1  UNL1        0.1316
     16 C           4.5981    2.2521    0.0000 C.ar    1  UNL1       -0.0439
     17 C           3.7320    1.7521    0.0000 C.ar    1  UNL1       -0.0184
     18 C           6.3580    2.2868    0.0000 C.ar    1  UNL1        0.1931
     19 C           7.2641    0.7313    0.0000 C.ar    1  UNL1        0.1392
     20 C           7.2641    1.7729    0.0000 C.ar    1  UNL1        0.0287
     21 C           8.1282    0.2280    0.0000 C.ar    1  UNL1        0.0174
     22 C           8.1244   -0.7720    0.0000 C.ar    1  UNL1       -0.0511
     23 C           8.9962    0.7246    0.0000 C.ar    1  UNL1       -0.0511
     24 C           2.0000    0.7521    0.0000 C.3     1  UNL1        0.0788
     25 C           8.9884   -1.2754    0.0000 C.ar    1  UNL1       -0.0611
     26 C           9.8602    0.2213    0.0000 C.ar    1  UNL1       -0.0611
     27 C           9.8564   -0.7787    0.0000 C.ar    1  UNL1       -0.0617
     28 H           5.9967   -1.1441    0.0000 H       1  UNL1        0.0619
     29 H           5.8575   -3.1854    0.0000 H       1  UNL1        0.0271
     30 H           6.6388   -2.7873    0.0000 H       1  UNL1        0.0271
     31 H           6.2407   -2.0061    0.0000 H       1  UNL1        0.0271
     32 H           4.4781   -3.2867    0.0000 H       1  UNL1        0.0271
     33 H           5.0981   -3.9067    0.0000 H       1  UNL1        0.0271
     34 H           5.7181   -3.2867    0.0000 H       1  UNL1        0.0271
     35 H           4.5981    2.8721    0.0000 H       1  UNL1        0.0627
     36 H           3.1951    2.0621    0.0000 H       1  UNL1        0.0654
     37 H           7.7998    2.0850    0.0000 H       1  UNL1        0.0693
     38 H           7.5862   -1.0800    0.0000 H       1  UNL1        0.0625
     39 H           8.9985    1.3446    0.0000 H       1  UNL1        0.0625
     40 H           2.3100    1.2891    0.0000 H       1  UNL1        0.0660
     41 H           1.4631    1.0621    0.0000 H       1  UNL1        0.0660
     42 H           1.6900    0.2152    0.0000 H       1  UNL1        0.0660
     43 H           8.9860   -1.8954    0.0000 H       1  UNL1        0.0618
     44 H          10.3984    0.5292    0.0000 H       1  UNL1        0.0618
     45 H          10.3921   -1.0908    0.0000 H       1  UNL1        0.0618
@<TRIPOS>BOND
     1     1     6    1
     2     1    13    1
     3     2    12   ar
     4     2    19   ar
     5     3    15    1
     6     3    24    1
     7     4    13    2
     8     5    18    2
     9     6     8    1
    10     6    10    1
    11     6    11    1
    12     7     8    2
    13     7     9    1
    14     7    13    1
    15     8    28    1
    16     9    12   ar
    17     9    15   ar
    18    10    32    1
    19    10    33    1
    20    10    34    1
    21    11    29    1
    22    11    30    1
    23    11    31    1
    24    12    14   ar
    25    14    16   ar
    26    14    18   ar
    27    15    17   ar
    28    16    17   ar
    29    16    35    1
    30    17    36    1
    31    18    20   ar
    32    19    20   ar
    33    19    21    1
    34    20    37    1
    35    21    22   ar
    36    21    23   ar
    37    22    25   ar
    38    22    38    1
    39    23    26   ar
    40    23    39    1
    41    24    40    1
    42    24    41    1
    43    24    42    1
    44    25    27   ar
    45    25    43    1
    46    26    27   ar
    47    26    44    1
    48    27    45    1
