@<TRIPOS>MOLECULE
IMPHY004668
 52 56 0 0 0
SMALL
GASTEIGER

@<TRIPOS>ATOM
      1 O           4.5686   -2.6257    0.0000 O.3     1  UNL1       -0.4580
      2 O           6.6425   -1.4662    0.0000 O.3     1  UNL1       -0.3876
      3 O           4.7088    3.0863    0.0000 O.3     1  UNL1       -0.3912
      4 O           3.0586   -3.5985    0.0000 O.2     1  UNL1       -0.2502
      5 C           5.6427   -0.0054    0.0000 C.3     1  UNL1        0.0079
      6 C           3.8722   -0.1449    0.0000 C.3     1  UNL1       -0.0213
      7 C           4.7418    0.4285    0.0000 C.3     1  UNL1       -0.0244
      8 C           3.9420   -1.1842    0.0000 C.3     1  UNL1        0.0198
      9 C           4.8805   -1.6361    0.0000 C.3     1  UNL1        0.1336
     10 C           5.7366   -1.0428    0.0000 C.3     1  UNL1        0.0985
     11 C           3.0503   -1.8023    0.0000 C.3     1  UNL1        0.0717
     12 C           5.5359    1.1714    0.0000 C.3     1  UNL1       -0.0354
     13 C           4.5192    1.4035    0.0000 C.3     1  UNL1       -0.0224
     14 C           6.1427    2.1853    0.0000 C.3     1  UNL1        0.0065
     15 C           6.5437    0.4285    0.0000 C.3     1  UNL1       -0.0232
     16 C           2.9058    0.3483    0.0000 C.3     1  UNL1       -0.0469
     17 C           5.1427    2.1853    0.0000 C.3     1  UNL1        0.0620
     18 C           2.0727   -1.3315    0.0000 C.3     1  UNL1       -0.0371
     19 C           6.7662    1.4035    0.0000 C.2     1  UNL1       -0.0705
     20 C           3.8051    0.8528    0.0000 C.3     1  UNL1       -0.0589
     21 C           2.0000   -0.2490    0.0000 C.3     1  UNL1       -0.0515
     22 C           3.5353   -2.7195    0.0000 C.2     1  UNL1        0.3138
     23 C           2.6199   -2.7049    0.0000 C.3     1  UNL1       -0.0490
     24 C           7.7412    1.6260    0.0000 C.2     1  UNL1       -0.0991
     25 H           5.4063    0.9585    0.0000 H       1  UNL1        0.0313
     26 H           3.1762   -0.8154    0.0000 H       1  UNL1        0.0353
     27 H           5.5648   -2.1404    0.0000 H       1  UNL1        0.0763
     28 H           5.8083   -1.8897    0.0000 H       1  UNL1        0.0636
     29 H           5.1281    1.6384    0.0000 H       1  UNL1        0.0278
     30 H           4.9658    0.9276    0.0000 H       1  UNL1        0.0278
     31 H           4.1327    1.8882    0.0000 H       1  UNL1        0.0293
     32 H           3.9606    1.1344    0.0000 H       1  UNL1        0.0293
     33 H           6.5115    2.9511    0.0000 H       1  UNL1        0.0371
     34 H           6.6817   -0.1759    0.0000 H       1  UNL1        0.0316
     35 H           7.1637    0.4285    0.0000 H       1  UNL1        0.0316
     36 H           3.2780    0.8442    0.0000 H       1  UNL1        0.0271
     37 H           2.4809    0.7999    0.0000 H       1  UNL1        0.0271
     38 H           4.2981    2.2805    0.0000 H       1  UNL1        0.0599
     39 H           1.4561   -1.2666    0.0000 H       1  UNL1        0.0276
     40 H           1.9033   -1.9279    0.0000 H       1  UNL1        0.0276
     41 H           4.4237    0.8944    0.0000 H       1  UNL1        0.0235
     42 H           3.7636    1.4714    0.0000 H       1  UNL1        0.0235
     43 H           3.1865    0.8113    0.0000 H       1  UNL1        0.0235
     44 H           1.7523    0.3194    0.0000 H       1  UNL1        0.0266
     45 H           1.3976   -0.3958    0.0000 H       1  UNL1        0.0266
     46 H           2.0602   -2.4381    0.0000 H       1  UNL1        0.0240
     47 H           2.3530   -3.2646    0.0000 H       1  UNL1        0.0240
     48 H           3.1795   -2.9718    0.0000 H       1  UNL1        0.0240
     49 H           6.6960   -2.0839    0.0000 H       1  UNL1        0.2100
     50 H           8.1628    1.1715    0.0000 H       1  UNL1        0.0535
     51 H           7.9239    2.2184    0.0000 H       1  UNL1        0.0535
     52 H           5.0581    3.5985    0.0000 H       1  UNL1        0.2098
@<TRIPOS>BOND
     1     1     9    1
     2     1    22    1
     3     2    10    1
     4     2    49    1
     5     3    17    1
     6     3    52    1
     7     4    22    2
     8     5     7    1
     9     5    10    1
    10     5    12    1
    11     5    15    1
    12     6     7    1
    13     6     8    1
    14     6    16    1
    15     6    20    1
    16     7    13    1
    17     7    25    1
    18     8     9    1
    19     8    11    1
    20     8    26    1
    21     9    10    1
    22     9    27    1
    23    10    28    1
    24    11    18    1
    25    11    22    1
    26    11    23    1
    27    12    14    1
    28    12    29    1
    29    12    30    1
    30    13    17    1
    31    13    31    1
    32    13    32    1
    33    14    17    1
    34    14    19    1
    35    14    33    1
    36    15    19    1
    37    15    34    1
    38    15    35    1
    39    16    21    1
    40    16    36    1
    41    16    37    1
    42    17    38    1
    43    18    21    1
    44    18    39    1
    45    18    40    1
    46    19    24    2
    47    20    41    1
    48    20    42    1
    49    20    43    1
    50    21    44    1
    51    21    45    1
    52    23    46    1
    53    23    47    1
    54    23    48    1
    55    24    50    1
    56    24    51    1
