@<TRIPOS>MOLECULE
IMPHY003452
 48 50 0 0 0
SMALL
GASTEIGER

@<TRIPOS>ATOM
      1 O           3.6302    0.6107    0.0000 O.3     1  UNL1       -0.3755
      2 O           2.9060    0.5731    0.0000 O.2     1  UNL1       -0.2889
      3 C           4.4027    1.4860    0.0000 C.3     1  UNL1        0.0054
      4 C           4.6252    0.5111    0.0000 C.3     1  UNL1        0.1584
      5 C           5.0262    2.2678    0.0000 C.3     1  UNL1       -0.0442
      6 C           5.5262    0.0772    0.0000 C.ar    1  UNL1        0.0025
      7 C           6.0262    2.2678    0.0000 C.3     1  UNL1       -0.0484
      8 C           6.4272    0.5111    0.0000 C.ar    1  UNL1       -0.0375
      9 C           6.6497    1.4860    0.0000 C.3     1  UNL1       -0.0270
     10 C           3.7569    0.0477    0.0000 C.2     1  UNL1        0.1958
     11 C           4.0374    2.4169    0.0000 C.3     1  UNL1       -0.0564
     12 C           3.5129    1.9423    0.0000 C.3     1  UNL1       -0.0564
     13 C           5.4323   -0.9602    0.0000 C.ar    1  UNL1       -0.0180
     14 C           3.7316   -0.9362    0.0000 C.2     1  UNL1        0.0014
     15 C           4.5750   -1.4435    0.0000 C.2     1  UNL1       -0.0474
     16 C           7.2968   -0.0623    0.0000 C.ar    1  UNL1       -0.0469
     17 C           2.8549   -1.4171    0.0000 C.3     1  UNL1       -0.0181
     18 C           6.2884   -1.5536    0.0000 C.ar    1  UNL1       -0.0540
     19 C           7.2269   -1.1016    0.0000 C.ar    1  UNL1       -0.0580
     20 C           8.1926    0.3819    0.0000 C.3     1  UNL1       -0.0394
     21 C           2.8331   -2.4169    0.0000 C.3     1  UNL1       -0.0585
     22 C           2.0000   -0.8983    0.0000 C.3     1  UNL1       -0.0585
     23 H           5.1642    2.8723    0.0000 H       1  UNL1        0.0272
     24 H           4.4676    2.5368    0.0000 H       1  UNL1        0.0272
     25 H           6.5848    2.5368    0.0000 H       1  UNL1        0.0269
     26 H           5.8882    2.8723    0.0000 H       1  UNL1        0.0269
     27 H           7.2083    1.2170    0.0000 H       1  UNL1        0.0313
     28 H           7.0362    1.9708    0.0000 H       1  UNL1        0.0313
     29 H           4.6145    2.6434    0.0000 H       1  UNL1        0.0236
     30 H           3.8109    2.9940    0.0000 H       1  UNL1        0.0236
     31 H           3.4602    2.1904    0.0000 H       1  UNL1        0.0236
     32 H           3.7958    2.4940    0.0000 H       1  UNL1        0.0236
     33 H           2.9612    2.2252    0.0000 H       1  UNL1        0.0236
     34 H           3.2300    1.3906    0.0000 H       1  UNL1        0.0236
     35 H           4.5662   -2.0634    0.0000 H       1  UNL1        0.0627
     36 H           3.3752    1.1758    0.0000 H       1  UNL1        0.2112
     37 H           2.3113   -1.7153    0.0000 H       1  UNL1        0.0345
     38 H           6.2397   -2.1717    0.0000 H       1  UNL1        0.0624
     39 H           7.7405   -1.4489    0.0000 H       1  UNL1        0.0620
     40 H           8.4681   -0.1735    0.0000 H       1  UNL1        0.0278
     41 H           8.7481    0.6574    0.0000 H       1  UNL1        0.0278
     42 H           7.9172    0.9374    0.0000 H       1  UNL1        0.0278
     43 H           2.2132   -2.4033    0.0000 H       1  UNL1        0.0235
     44 H           2.8195   -3.0367    0.0000 H       1  UNL1        0.0235
     45 H           3.4529   -2.4304    0.0000 H       1  UNL1        0.0235
     46 H           2.3216   -0.3683    0.0000 H       1  UNL1        0.0235
     47 H           1.4700   -0.5767    0.0000 H       1  UNL1        0.0235
     48 H           1.6784   -1.4284    0.0000 H       1  UNL1        0.0235
@<TRIPOS>BOND
     1     4     1    1
     2     1    36    1
     3     2    10    2
     4     3     4    1
     5     3     5    1
     6     3    11    1
     7     3    12    1
     8     4     6    1
     9     4    10    1
    10     5     7    1
    11     5    23    1
    12     5    24    1
    13     6     8   ar
    14     6    13   ar
    15     7     9    1
    16     7    25    1
    17     7    26    1
    18     8     9    1
    19     8    16   ar
    20     9    27    1
    21     9    28    1
    22    10    14    1
    23    11    29    1
    24    11    30    1
    25    11    31    1
    26    12    32    1
    27    12    33    1
    28    12    34    1
    29    13    15    1
    30    13    18   ar
    31    14    15    2
    32    14    17    1
    33    15    35    1
    34    16    19   ar
    35    16    20    1
    36    17    21    1
    37    17    22    1
    38    17    37    1
    39    18    19   ar
    40    18    38    1
    41    19    39    1
    42    20    40    1
    43    20    41    1
    44    20    42    1
    45    21    43    1
    46    21    44    1
    47    21    45    1
    48    22    46    1
    49    22    47    1
    50    22    48    1
