@<TRIPOS>MOLECULE
IMPHY008535
 71 75 0 0 0
SMALL
GASTEIGER

@<TRIPOS>ATOM
      1 O          11.8162   -1.7239    0.0000 O.3     1  UNL1       -0.4833
      2 O           7.4260   -0.1897    0.0000 O.3     1  UNL1       -0.4824
      3 O          13.5943    0.3281    0.0000 O.3     1  UNL1       -0.3875
      4 O           3.9061   -0.1897    0.0000 O.3     1  UNL1       -0.4811
      5 O           8.3244   -1.6758    0.0000 O.3     1  UNL1       -0.5063
      6 O           5.6660    2.8450    0.0000 O.3     1  UNL1       -0.5052
      7 O           7.4144    2.8796    0.0000 O.2     1  UNL1       -0.2917
      8 C          12.7243   -1.2136    0.0000 C.3     1  UNL1        0.1310
      9 C          12.7283   -0.1719    0.0000 C.3     1  UNL1        0.0983
     10 C          11.8242    0.3454    0.0000 C.3     1  UNL1        0.0057
     11 C          10.9282   -0.1858    0.0000 C.ar    1  UNL1       -0.0025
     12 C           8.3321    0.3242    0.0000 C.3     1  UNL1        0.1355
     13 C          10.9243   -1.1858    0.0000 C.ar    1  UNL1        0.1281
     14 C           9.1962   -0.1792    0.0000 C.ar    1  UNL1        0.0350
     15 C          10.0641    0.3175    0.0000 C.ar    1  UNL1       -0.0448
     16 C          13.7242   -1.2213    0.0000 C.3     1  UNL1       -0.0227
     17 C          13.2176   -2.0834    0.0000 C.3     1  UNL1       -0.0227
     18 C           8.3321    1.3658    0.0000 C.3     1  UNL1        0.0521
     19 C           6.5320    0.3450    0.0000 C.ar    1  UNL1        0.1424
     20 C           6.5320    1.3450    0.0000 C.ar    1  UNL1        0.1015
     21 C           9.1923   -1.1791    0.0000 C.ar    1  UNL1        0.1270
     22 C          10.0564   -1.6825    0.0000 C.ar    1  UNL1        0.0222
     23 C           5.6660   -0.1550    0.0000 C.ar    1  UNL1        0.0412
     24 C           7.4260    1.8797    0.0000 C.2     1  UNL1        0.1741
     25 C           4.8000    0.3450    0.0000 C.ar    1  UNL1        0.1393
     26 C           4.8000    1.3450    0.0000 C.ar    1  UNL1        0.0591
     27 C           3.0000    0.3242    0.0000 C.3     1  UNL1        0.1235
     28 C           5.6660    1.8450    0.0000 C.ar    1  UNL1        0.1415
     29 C           5.6660   -1.1550    0.0000 C.3     1  UNL1       -0.0023
     30 C           3.9061    1.8797    0.0000 C.2     1  UNL1       -0.0478
     31 C           3.0000    1.3658    0.0000 C.2     1  UNL1       -0.0408
     32 C           2.0000    0.3203    0.0000 C.3     1  UNL1       -0.0215
     33 C           2.5033   -0.5438    0.0000 C.3     1  UNL1       -0.0215
     34 C           4.8000   -1.6550    0.0000 C.2     1  UNL1       -0.0807
     35 C           4.8000   -2.6550    0.0000 C.2     1  UNL1       -0.0793
     36 C           3.9340   -3.1550    0.0000 C.3     1  UNL1       -0.0440
     37 C           5.6660   -3.1550    0.0000 C.3     1  UNL1       -0.0440
     38 H          13.2646   -0.4830    0.0000 H       1  UNL1        0.0636
     39 H          12.2197    0.8229    0.0000 H       1  UNL1        0.0341
     40 H          11.4214    0.8167    0.0000 H       1  UNL1        0.0341
     41 H           8.3285   -0.2958    0.0000 H       1  UNL1        0.0790
     42 H          10.0665    0.9375    0.0000 H       1  UNL1        0.0626
     43 H          12.6783   -2.3893    0.0000 H       1  UNL1        0.0269
     44 H          13.5234   -2.6227    0.0000 H       1  UNL1        0.0269
     45 H          13.7569   -1.7776    0.0000 H       1  UNL1        0.0269
     46 H          13.7194   -1.8413    0.0000 H       1  UNL1        0.0269
     47 H          14.3442   -1.2261    0.0000 H       1  UNL1        0.0269
     48 H          13.7290   -0.6013    0.0000 H       1  UNL1        0.0269
     49 H           8.9429    1.2597    0.0000 H       1  UNL1        0.0385
     50 H           8.5411    1.9495    0.0000 H       1  UNL1        0.0385
     51 H          10.0540   -2.3025    0.0000 H       1  UNL1        0.0691
     52 H          13.5943    0.9481    0.0000 H       1  UNL1        0.2100
     53 H           5.8781   -1.7376    0.0000 H       1  UNL1        0.0358
     54 H           6.2766   -1.0473    0.0000 H       1  UNL1        0.0358
     55 H           3.9132    2.4996    0.0000 H       1  UNL1        0.0624
     56 H           2.4643    1.6779    0.0000 H       1  UNL1        0.0611
     57 H           1.9652   -0.2358    0.0000 H       1  UNL1        0.0271
     58 H           2.1954   -1.0819    0.0000 H       1  UNL1        0.0271
     59 H           3.0415   -0.8517    0.0000 H       1  UNL1        0.0271
     60 H           1.9976    0.9403    0.0000 H       1  UNL1        0.0271
     61 H           1.3800    0.3179    0.0000 H       1  UNL1        0.0271
     62 H           2.0024   -0.2997    0.0000 H       1  UNL1        0.0271
     63 H           8.3220   -2.2958    0.0000 H       1  UNL1        0.2921
     64 H           4.2631   -1.3450    0.0000 H       1  UNL1        0.0575
     65 H           5.1291    3.1550    0.0000 H       1  UNL1        0.2922
     66 H           3.6240   -2.6181    0.0000 H       1  UNL1        0.0274
     67 H           5.3560   -3.6919    0.0000 H       1  UNL1        0.0274
     68 H           6.2030   -3.4650    0.0000 H       1  UNL1        0.0274
     69 H           5.9760   -2.6181    0.0000 H       1  UNL1        0.0274
     70 H           3.3970   -3.4650    0.0000 H       1  UNL1        0.0274
     71 H           4.2440   -3.6919    0.0000 H       1  UNL1        0.0274
@<TRIPOS>BOND
     1     1     8    1
     2     1    13    1
     3     2    12    1
     4     2    19    1
     5     3     9    1
     6     3    52    1
     7     4    25    1
     8     4    27    1
     9     5    21    1
    10     5    63    1
    11     6    28    1
    12     6    65    1
    13     7    24    2
    14     8     9    1
    15     8    16    1
    16     8    17    1
    17     9    10    1
    18     9    38    1
    19    10    11    1
    20    10    39    1
    21    10    40    1
    22    11    13   ar
    23    11    15   ar
    24    12    14    1
    25    12    18    1
    26    12    41    1
    27    13    22   ar
    28    14    15   ar
    29    14    21   ar
    30    15    42    1
    31    16    46    1
    32    16    47    1
    33    16    48    1
    34    17    43    1
    35    17    44    1
    36    17    45    1
    37    18    24    1
    38    18    49    1
    39    18    50    1
    40    19    20   ar
    41    19    23   ar
    42    20    24    1
    43    20    28   ar
    44    21    22   ar
    45    22    51    1
    46    23    25   ar
    47    23    29    1
    48    25    26   ar
    49    26    28   ar
    50    26    30    1
    51    27    31    1
    52    27    32    1
    53    27    33    1
    54    29    34    1
    55    29    53    1
    56    29    54    1
    57    30    31    2
    58    30    55    1
    59    31    56    1
    60    32    60    1
    61    32    61    1
    62    32    62    1
    63    33    57    1
    64    33    58    1
    65    33    59    1
    66    34    35    2
    67    34    64    1
    68    35    36    1
    69    35    37    1
    70    36    66    1
    71    36    70    1
    72    36    71    1
    73    37    67    1
    74    37    68    1
    75    37    69    1
