@<TRIPOS>MOLECULE
IMPHY003358
 87 90 0 0 0
SMALL
GASTEIGER

@<TRIPOS>ATOM
      1 O          13.7953    0.8856    0.0000 O.3     1  UNL1       -0.3125
      2 O          12.7953    1.8856    0.0000 O.3     1  UNL1       -0.3362
      3 O          12.0632    0.8856    0.0000 O.3     1  UNL1       -0.3404
      4 O           7.7331    0.3856    0.0000 O.3     1  UNL1       -0.3405
      5 O           9.4651    0.3856    0.0000 O.3     1  UNL1       -0.3460
      6 O          15.0553    3.1456    0.0000 O.3     1  UNL1       -0.3837
      7 O          13.2953    4.4244    0.0000 O.3     1  UNL1       -0.3864
      8 O          13.7953   -1.1144    0.0000 O.3     1  UNL1       -0.3841
      9 O          10.3312   -1.1144    0.0000 O.3     1  UNL1       -0.3865
     10 O          12.0632   -2.1144    0.0000 O.3     1  UNL1       -0.3864
     11 O           6.0010   -0.6144    0.0000 O.3     1  UNL1       -0.3460
     12 O           5.1350   -2.1144    0.0000 O.3     1  UNL1       -0.3405
     13 O          15.4895    2.2457    0.0000 O.3     1  UNL1       -0.3896
     14 O           6.0010    2.3856    0.0000 O.3     1  UNL1       -0.3865
     15 O           7.7331    3.3856    0.0000 O.3     1  UNL1       -0.3864
     16 O           9.4651    2.3856    0.0000 O.3     1  UNL1       -0.3841
     17 O          11.3273    4.1238    0.0000 O.3     1  UNL1       -0.3924
     18 O           4.2690    0.3856    0.0000 O.3     1  UNL1       -0.3841
     19 O           2.5369   -0.6144    0.0000 O.3     1  UNL1       -0.3864
     20 O           2.5369   -2.6144    0.0000 O.3     1  UNL1       -0.3865
     21 O           5.1350   -4.1144    0.0000 O.3     1  UNL1       -0.3924
     22 C          13.7953    1.8856    0.0000 C.3     1  UNL1        0.2252
     23 C          14.1043    2.8366    0.0000 C.3     1  UNL1        0.1395
     24 C          13.2953    3.4244    0.0000 C.3     1  UNL1        0.1145
     25 C          12.9292    0.3856    0.0000 C.3     1  UNL1        0.1912
     26 C          12.4862    2.8366    0.0000 C.3     1  UNL1        0.1134
     27 C          11.1972    0.3856    0.0000 C.3     1  UNL1        0.1134
     28 C          12.9292   -0.6144    0.0000 C.3     1  UNL1        0.1342
     29 C          11.1972   -0.6144    0.0000 C.3     1  UNL1        0.1119
     30 C          12.0632   -1.1144    0.0000 C.3     1  UNL1        0.1141
     31 C          14.7463    1.5766    0.0000 C.3     1  UNL1        0.1009
     32 C           6.8671    0.8856    0.0000 C.3     1  UNL1        0.1134
     33 C           8.5991    0.8856    0.0000 C.3     1  UNL1        0.1880
     34 C           6.8671    1.8856    0.0000 C.3     1  UNL1        0.1119
     35 C          10.3312    0.8856    0.0000 C.3     1  UNL1        0.0796
     36 C           8.5991    1.8856    0.0000 C.3     1  UNL1        0.1341
     37 C           7.7331    2.3856    0.0000 C.3     1  UNL1        0.1141
     38 C          11.5352    3.1456    0.0000 C.3     1  UNL1        0.0730
     39 C           6.0010    0.3856    0.0000 C.3     1  UNL1        0.0796
     40 C           5.1350   -1.1144    0.0000 C.3     1  UNL1        0.1880
     41 C           4.2690   -0.6144    0.0000 C.3     1  UNL1        0.1341
     42 C           3.4030   -1.1144    0.0000 C.3     1  UNL1        0.1141
     43 C           3.4030   -2.1144    0.0000 C.3     1  UNL1        0.1119
     44 C           4.2690   -2.6144    0.0000 C.3     1  UNL1        0.1130
     45 C           4.2690   -3.6144    0.0000 C.3     1  UNL1        0.0730
     46 H          14.2013    3.4490    0.0000 H       1  UNL1        0.0675
     47 H          13.8477    3.7059    0.0000 H       1  UNL1        0.0648
     48 H          13.4662    0.0756    0.0000 H       1  UNL1        0.0939
     49 H          12.0478    2.3982    0.0000 H       1  UNL1        0.0647
     50 H          11.1972    1.0056    0.0000 H       1  UNL1        0.0647
     51 H          12.9292   -1.2344    0.0000 H       1  UNL1        0.0671
     52 H          10.6603   -0.3044    0.0000 H       1  UNL1        0.0647
     53 H          11.5263   -1.4244    0.0000 H       1  UNL1        0.0648
     54 H           6.8671    0.2656    0.0000 H       1  UNL1        0.0647
     55 H          14.4552    1.0291    0.0000 H       1  UNL1        0.0612
     56 H          15.2349    1.1948    0.0000 H       1  UNL1        0.0612
     57 H           8.5991    0.2656    0.0000 H       1  UNL1        0.0937
     58 H           6.8671    2.5056    0.0000 H       1  UNL1        0.0647
     59 H          10.7297    1.3605    0.0000 H       1  UNL1        0.0587
     60 H           9.9326    1.3605    0.0000 H       1  UNL1        0.0587
     61 H           8.5991    2.5056    0.0000 H       1  UNL1        0.0671
     62 H           8.2700    2.6956    0.0000 H       1  UNL1        0.0648
     63 H          10.9156    3.1240    0.0000 H       1  UNL1        0.0584
     64 H          11.4489    2.5317    0.0000 H       1  UNL1        0.0584
     65 H           5.7890    0.9682    0.0000 H       1  UNL1        0.0587
     66 H           5.3905    0.2779    0.0000 H       1  UNL1        0.0587
     67 H           5.1350   -0.4944    0.0000 H       1  UNL1        0.0937
     68 H           3.7320   -0.3044    0.0000 H       1  UNL1        0.0671
     69 H           3.9650   -0.4944    0.0000 H       1  UNL1        0.0648
     70 H           3.4030   -2.7344    0.0000 H       1  UNL1        0.0647
     71 H           4.8059   -2.9244    0.0000 H       1  UNL1        0.0647
     72 H          15.1842    3.7521    0.0000 H       1  UNL1        0.2101
     73 H          13.8322    4.7344    0.0000 H       1  UNL1        0.2100
     74 H          13.7953   -1.7344    0.0000 H       1  UNL1        0.2101
     75 H          10.3312   -1.7344    0.0000 H       1  UNL1        0.2100
     76 H          11.5263   -2.4244    0.0000 H       1  UNL1        0.2100
     77 H          16.0791    2.0541    0.0000 H       1  UNL1        0.2096
     78 H           5.4641    2.0756    0.0000 H       1  UNL1        0.2100
     79 H           7.1962    3.6956    0.0000 H       1  UNL1        0.2100
     80 H           9.4651    3.0056    0.0000 H       1  UNL1        0.2101
     81 H           3.6584   -3.5068    0.0000 H       1  UNL1        0.0584
     82 H           4.0569   -4.1970    0.0000 H       1  UNL1        0.0584
     83 H          10.7376    4.3154    0.0000 H       1  UNL1        0.2095
     84 H           3.7320    0.6956    0.0000 H       1  UNL1        0.2101
     85 H           2.0000   -0.9244    0.0000 H       1  UNL1        0.2100
     86 H           2.5369   -3.2344    0.0000 H       1  UNL1        0.2100
     87 H           5.1350   -4.7344    0.0000 H       1  UNL1        0.2095
@<TRIPOS>BOND
     1    22     1    1
     2    25     1    1
     3     2    22    1
     4     2    26    1
     5     3    25    1
     6     3    27    1
     7     4    32    1
     8     4    33    1
     9    33     5    1
    10     5    35    1
    11    23     6    1
    12     6    72    1
    13    24     7    1
    14     7    73    1
    15    28     8    1
    16     8    74    1
    17    29     9    1
    18     9    75    1
    19    30    10    1
    20    10    76    1
    21    11    39    1
    22    40    11    1
    23    12    40    1
    24    12    44    1
    25    13    31    1
    26    13    77    1
    27    34    14    1
    28    14    78    1
    29    37    15    1
    30    15    79    1
    31    36    16    1
    32    16    80    1
    33    17    38    1
    34    17    83    1
    35    41    18    1
    36    18    84    1
    37    42    19    1
    38    19    85    1
    39    43    20    1
    40    20    86    1
    41    21    45    1
    42    21    87    1
    43    22    23    1
    44    22    31    1
    45    23    24    1
    46    23    46    1
    47    24    26    1
    48    24    47    1
    49    25    28    1
    50    25    48    1
    51    26    38    1
    52    26    49    1
    53    27    29    1
    54    27    35    1
    55    27    50    1
    56    28    30    1
    57    28    51    1
    58    29    30    1
    59    29    52    1
    60    30    53    1
    61    31    55    1
    62    31    56    1
    63    32    34    1
    64    32    39    1
    65    32    54    1
    66    33    36    1
    67    33    57    1
    68    34    37    1
    69    34    58    1
    70    35    59    1
    71    35    60    1
    72    36    37    1
    73    36    61    1
    74    37    62    1
    75    38    63    1
    76    38    64    1
    77    39    65    1
    78    39    66    1
    79    40    41    1
    80    40    67    1
    81    41    42    1
    82    41    68    1
    83    42    43    1
    84    42    69    1
    85    43    44    1
    86    43    70    1
    87    44    45    1
    88    44    71    1
    89    45    81    1
    90    45    82    1
