@<TRIPOS>MOLECULE
IMPHY008546
 48 52 0 0 0
SMALL
GASTEIGER

@<TRIPOS>ATOM
      1 O           3.7153   -1.2378    0.0000 O.3     1  UNL1       -0.3597
      2 O           4.3723    2.2344    0.0000 O.3     1  UNL1       -0.4535
      3 O           9.1086   -2.2897    0.0000 O.2     1  UNL1       -0.2921
      4 O           2.8836    3.2035    0.0000 O.2     1  UNL1       -0.2453
      5 C           4.5816   -0.7374    0.0000 C.3     1  UNL1        0.1041
      6 C           5.4476   -0.2374    0.0000 C.3     1  UNL1        0.0037
      7 C           6.3576   -0.7442    0.0000 C.3     1  UNL1       -0.0043
      8 C           3.7155   -0.2374    0.0000 C.3     1  UNL1        0.1138
      9 C           6.3656   -1.7858    0.0000 C.3     1  UNL1       -0.0196
     10 C           4.5655   -1.7789    0.0000 C.3     1  UNL1       -0.0203
     11 C           5.4476    0.7626    0.0000 C.3     1  UNL1       -0.0053
     12 C           5.4635   -2.3066    0.0000 C.3     1  UNL1       -0.0458
     13 C           3.7155    0.7626    0.0000 C.2     1  UNL1        0.0113
     14 C           4.5816    1.2626    0.0000 C.3     1  UNL1        0.1280
     15 C           7.3010   -2.3356    0.0000 C.3     1  UNL1        0.0310
     16 C           6.3499    0.2557    0.0000 C.3     1  UNL1       -0.0555
     17 C           7.2844   -0.1802    0.0000 C.2     1  UNL1       -0.0741
     18 C           2.9785    1.4297    0.0000 C.2     1  UNL1        0.0388
     19 C           8.2407   -1.7931    0.0000 C.2     1  UNL1        0.1617
     20 C           8.2323   -0.7081    0.0000 C.2     1  UNL1       -0.0221
     21 C           7.7977   -3.2035    0.0000 C.3     1  UNL1       -0.0525
     22 C           6.7977   -3.1996    0.0000 C.3     1  UNL1       -0.0525
     23 C           3.3836    2.3375    0.0000 C.2     1  UNL1        0.3356
     24 C           2.0000    1.2235    0.0000 C.3     1  UNL1       -0.0328
     25 H           6.1804    0.1933    0.0000 H       1  UNL1        0.0339
     26 H           2.8655   -0.2373    0.0000 H       1  UNL1        0.0674
     27 H           6.3623   -2.6358    0.0000 H       1  UNL1        0.0318
     28 H           3.9563   -1.6634    0.0000 H       1  UNL1        0.0294
     29 H           4.3475   -2.3593    0.0000 H       1  UNL1        0.0294
     30 H           6.0582    0.6549    0.0000 H       1  UNL1        0.0308
     31 H           5.6596    1.3452    0.0000 H       1  UNL1        0.0308
     32 H           5.0626   -2.7795    0.0000 H       1  UNL1        0.0269
     33 H           5.8608   -2.7826    0.0000 H       1  UNL1        0.0269
     34 H           5.2686    1.7631    0.0000 H       1  UNL1        0.0783
     35 H           6.9698    0.2605    0.0000 H       1  UNL1        0.0238
     36 H           6.3451    0.8757    0.0000 H       1  UNL1        0.0238
     37 H           5.7299    0.2510    0.0000 H       1  UNL1        0.0238
     38 H           7.2725    0.4397    0.0000 H       1  UNL1        0.0579
     39 H           8.7656   -0.3919    0.0000 H       1  UNL1        0.0649
     40 H           7.2596   -3.5114    0.0000 H       1  UNL1        0.0239
     41 H           8.1056   -3.7416    0.0000 H       1  UNL1        0.0239
     42 H           8.3358   -2.8956    0.0000 H       1  UNL1        0.0239
     43 H           6.2620   -2.8876    0.0000 H       1  UNL1        0.0239
     44 H           6.4856   -3.7354    0.0000 H       1  UNL1        0.0239
     45 H           7.3334   -3.5117    0.0000 H       1  UNL1        0.0239
     46 H           1.8721    1.8302    0.0000 H       1  UNL1        0.0280
     47 H           1.3933    1.0956    0.0000 H       1  UNL1        0.0280
     48 H           2.1279    0.6168    0.0000 H       1  UNL1        0.0280
@<TRIPOS>BOND
     1     5     1    1
     2     1     8    1
     3     2    14    1
     4     2    23    1
     5     3    19    2
     6     4    23    2
     7     5     6    1
     8     5     8    1
     9     5    10    1
    10     6     7    1
    11     6    11    1
    12     6    25    1
    13     7     9    1
    14     7    16    1
    15     7    17    1
    16     8    13    1
    17     8    26    1
    18     9    12    1
    19     9    15    1
    20     9    27    1
    21    10    12    1
    22    10    28    1
    23    10    29    1
    24    11    14    1
    25    11    30    1
    26    11    31    1
    27    12    32    1
    28    12    33    1
    29    13    14    1
    30    13    18    2
    31    14    34    1
    32    15    19    1
    33    15    21    1
    34    15    22    1
    35    16    35    1
    36    16    36    1
    37    16    37    1
    38    17    20    2
    39    17    38    1
    40    18    23    1
    41    18    24    1
    42    19    20    1
    43    20    39    1
    44    21    40    1
    45    21    41    1
    46    21    42    1
    47    22    43    1
    48    22    44    1
    49    22    45    1
    50    24    46    1
    51    24    47    1
    52    24    48    1
