@<TRIPOS>MOLECULE
IMPHY013776
 47 46 0 0 0
SMALL
GASTEIGER

@<TRIPOS>ATOM
      1 BR          2.0000    0.2500    0.0000 Br      1  UNL1       -0.0918
      2 C           8.9282    0.2500    0.0000 C.3     1  UNL1       -0.0531
      3 C           8.0622   -0.2500    0.0000 C.3     1  UNL1       -0.0531
      4 C           9.7942   -0.2500    0.0000 C.3     1  UNL1       -0.0531
      5 C           7.1962    0.2500    0.0000 C.3     1  UNL1       -0.0531
      6 C          10.6603    0.2500    0.0000 C.3     1  UNL1       -0.0531
      7 C           6.3301   -0.2500    0.0000 C.3     1  UNL1       -0.0531
      8 C          11.5263   -0.2500    0.0000 C.3     1  UNL1       -0.0531
      9 C           5.4641    0.2500    0.0000 C.3     1  UNL1       -0.0530
     10 C          12.3923    0.2500    0.0000 C.3     1  UNL1       -0.0531
     11 C           4.5981   -0.2500    0.0000 C.3     1  UNL1       -0.0523
     12 C          13.2583   -0.2500    0.0000 C.3     1  UNL1       -0.0533
     13 C           3.7320    0.2500    0.0000 C.3     1  UNL1       -0.0434
     14 C          14.1244    0.2500    0.0000 C.3     1  UNL1       -0.0559
     15 C           2.8660   -0.2500    0.0000 C.3     1  UNL1        0.0033
     16 C          14.9904   -0.2500    0.0000 C.3     1  UNL1       -0.0653
     17 H           9.3267    0.7249    0.0000 H       1  UNL1        0.0265
     18 H           8.5297    0.7249    0.0000 H       1  UNL1        0.0265
     19 H           7.6636   -0.7249    0.0000 H       1  UNL1        0.0265
     20 H           8.4607   -0.7249    0.0000 H       1  UNL1        0.0265
     21 H           9.3957   -0.7249    0.0000 H       1  UNL1        0.0265
     22 H          10.1928   -0.7249    0.0000 H       1  UNL1        0.0265
     23 H           7.5947    0.7249    0.0000 H       1  UNL1        0.0265
     24 H           6.7976    0.7249    0.0000 H       1  UNL1        0.0265
     25 H          11.0588    0.7249    0.0000 H       1  UNL1        0.0265
     26 H          10.2617    0.7249    0.0000 H       1  UNL1        0.0265
     27 H           5.9316   -0.7249    0.0000 H       1  UNL1        0.0265
     28 H           6.7287   -0.7249    0.0000 H       1  UNL1        0.0265
     29 H          11.1278   -0.7249    0.0000 H       1  UNL1        0.0265
     30 H          11.9248   -0.7249    0.0000 H       1  UNL1        0.0265
     31 H           5.8626    0.7249    0.0000 H       1  UNL1        0.0265
     32 H           5.0656    0.7249    0.0000 H       1  UNL1        0.0265
     33 H          12.7908    0.7249    0.0000 H       1  UNL1        0.0265
     34 H          11.9938    0.7249    0.0000 H       1  UNL1        0.0265
     35 H           4.1996   -0.7249    0.0000 H       1  UNL1        0.0266
     36 H           4.9966   -0.7249    0.0000 H       1  UNL1        0.0266
     37 H          12.8598   -0.7249    0.0000 H       1  UNL1        0.0265
     38 H          13.6569   -0.7249    0.0000 H       1  UNL1        0.0265
     39 H           4.1306    0.7249    0.0000 H       1  UNL1        0.0273
     40 H           3.3335    0.7249    0.0000 H       1  UNL1        0.0273
     41 H          14.5229    0.7249    0.0000 H       1  UNL1        0.0263
     42 H          13.7258    0.7249    0.0000 H       1  UNL1        0.0263
     43 H           2.4675   -0.7249    0.0000 H       1  UNL1        0.0382
     44 H           3.2646   -0.7249    0.0000 H       1  UNL1        0.0382
     45 H          14.6804   -0.7869    0.0000 H       1  UNL1        0.0230
     46 H          15.5273   -0.5600    0.0000 H       1  UNL1        0.0230
     47 H          15.3004    0.2869    0.0000 H       1  UNL1        0.0230
@<TRIPOS>BOND
     1     1    15    1
     2     2     3    1
     3     2     4    1
     4     2    17    1
     5     2    18    1
     6     3     5    1
     7     3    19    1
     8     3    20    1
     9     4     6    1
    10     4    21    1
    11     4    22    1
    12     5     7    1
    13     5    23    1
    14     5    24    1
    15     6     8    1
    16     6    25    1
    17     6    26    1
    18     7     9    1
    19     7    27    1
    20     7    28    1
    21     8    10    1
    22     8    29    1
    23     8    30    1
    24     9    11    1
    25     9    31    1
    26     9    32    1
    27    10    12    1
    28    10    33    1
    29    10    34    1
    30    11    13    1
    31    11    35    1
    32    11    36    1
    33    12    14    1
    34    12    37    1
    35    12    38    1
    36    13    15    1
    37    13    39    1
    38    13    40    1
    39    14    16    1
    40    14    41    1
    41    14    42    1
    42    15    43    1
    43    15    44    1
    44    16    45    1
    45    16    46    1
    46    16    47    1
