@<TRIPOS>MOLECULE
IMPHY001284
 82 86 0 0 0
SMALL
GASTEIGER

@<TRIPOS>ATOM
      1 O          10.9848    3.0930    0.0000 O.3     1  UNL1       -0.3912
      2 O           6.8117   -2.2571    0.0000 O.3     1  UNL1       -0.3941
      3 O           3.8493   -3.0931    0.0000 O.3     1  UNL1       -0.4802
      4 O           5.5813   -3.1064    0.0000 O.2     1  UNL1       -0.2504
      5 C           7.3770   -0.0513    0.0000 C.3     1  UNL1       -0.0170
      6 C           7.3770    0.9487    0.0000 C.3     1  UNL1       -0.0257
      7 C           8.2709    1.4833    0.0000 C.3     1  UNL1       -0.0250
      8 C           6.5109   -0.5513    0.0000 C.3     1  UNL1        0.0208
      9 C           9.1770    0.9695    0.0000 C.3     1  UNL1       -0.0278
     10 C           8.2709   -0.5860    0.0000 C.3     1  UNL1       -0.0462
     11 C           5.6449   -0.0513    0.0000 C.2     1  UNL1       -0.0602
     12 C           9.1770   -0.0722    0.0000 C.3     1  UNL1       -0.0486
     13 C          10.1208    1.5047    0.0000 C.3     1  UNL1       -0.0056
     14 C           4.7349   -0.5582    0.0000 C.3     1  UNL1       -0.0007
     15 C           6.5109    1.4487    0.0000 C.3     1  UNL1       -0.0306
     16 C           6.5270   -1.5928    0.0000 C.3     1  UNL1       -0.0400
     17 C           4.7269   -1.5998    0.0000 C.3     1  UNL1        0.0743
     18 C           8.2458    2.5680    0.0000 C.3     1  UNL1       -0.0447
     19 C           5.6290   -2.1206    0.0000 C.3     1  UNL1       -0.0358
     20 C           7.7191   -0.9910    0.0000 C.3     1  UNL1       -0.0584
     21 C           5.6449    0.9487    0.0000 C.2     1  UNL1       -0.0835
     22 C          10.1208    2.5897    0.0000 C.3     1  UNL1        0.0606
     23 C           7.4010    1.9766    0.0000 C.3     1  UNL1       -0.0590
     24 C           7.1537   -1.3174    0.0000 C.3     1  UNL1        0.0540
     25 C           3.8081    0.0059    0.0000 C.3     1  UNL1       -0.0337
     26 C           9.1770    3.1250    0.0000 C.3     1  UNL1       -0.0258
     27 C           3.7914   -2.1495    0.0000 C.3     1  UNL1       -0.0364
     28 C           2.8602   -0.5220    0.0000 C.3     1  UNL1       -0.0407
     29 C          11.1207    1.5009    0.0000 C.3     1  UNL1       -0.0572
     30 C          10.6174    0.6368    0.0000 C.3     1  UNL1       -0.0572
     31 C           2.8518   -1.6070    0.0000 C.3     1  UNL1       -0.0492
     32 C           4.7192   -2.5997    0.0000 C.2     1  UNL1        0.3115
     33 C           3.8273    1.0057    0.0000 C.3     1  UNL1       -0.0616
     34 C           2.0000   -0.0121    0.0000 C.3     1  UNL1       -0.0622
     35 H           8.1163    0.5294    0.0000 H       1  UNL1        0.0315
     36 H           9.9114    0.5416    0.0000 H       1  UNL1        0.0312
     37 H           7.8663   -1.0558    0.0000 H       1  UNL1        0.0271
     38 H           8.6645   -1.0650    0.0000 H       1  UNL1        0.0271
     39 H           9.3860   -0.6558    0.0000 H       1  UNL1        0.0268
     40 H           9.7878    0.0339    0.0000 H       1  UNL1        0.0268
     41 H           4.7513    0.2917    0.0000 H       1  UNL1        0.0359
     42 H           6.9095    1.9236    0.0000 H       1  UNL1        0.0310
     43 H           6.1124    1.9236    0.0000 H       1  UNL1        0.0310
     44 H           6.7450   -2.1732    0.0000 H       1  UNL1        0.0275
     45 H           7.1361   -1.4773    0.0000 H       1  UNL1        0.0275
     46 H           8.0233    3.1467    0.0000 H       1  UNL1        0.0271
     47 H           7.6376    2.4478    0.0000 H       1  UNL1        0.0271
     48 H           5.2316   -2.5966    0.0000 H       1  UNL1        0.0276
     49 H           6.0299   -2.5935    0.0000 H       1  UNL1        0.0276
     50 H           7.1365   -1.2031    0.0000 H       1  UNL1        0.0235
     51 H           7.9312   -1.5736    0.0000 H       1  UNL1        0.0235
     52 H           8.3017   -0.7789    0.0000 H       1  UNL1        0.0235
     53 H           5.1080    1.2587    0.0000 H       1  UNL1        0.0572
     54 H          10.6583    2.2808    0.0000 H       1  UNL1        0.0599
     55 H           7.7069    2.5159    0.0000 H       1  UNL1        0.0235
     56 H           6.8617    2.2825    0.0000 H       1  UNL1        0.0235
     57 H           7.0952    1.4373    0.0000 H       1  UNL1        0.0235
     58 H           7.6907   -1.6274    0.0000 H       1  UNL1        0.0566
     59 H           7.5522   -0.8424    0.0000 H       1  UNL1        0.0566
     60 H           4.3515    0.3044    0.0000 H       1  UNL1        0.0307
     61 H           9.5706    3.6040    0.0000 H       1  UNL1        0.0290
     62 H           8.7724    3.5947    0.0000 H       1  UNL1        0.0290
     63 H           3.3942   -2.6255    0.0000 H       1  UNL1        0.0276
     64 H           4.1924   -2.6224    0.0000 H       1  UNL1        0.0276
     65 H           2.8686    0.0979    0.0000 H       1  UNL1        0.0301
     66 H          11.1184    0.8809    0.0000 H       1  UNL1        0.0236
     67 H          10.0793    0.3288    0.0000 H       1  UNL1        0.0236
     68 H          10.9253    0.0986    0.0000 H       1  UNL1        0.0236
     69 H          11.1555    0.9447    0.0000 H       1  UNL1        0.0236
     70 H          11.7407    1.4985    0.0000 H       1  UNL1        0.0236
     71 H          11.1231    2.1209    0.0000 H       1  UNL1        0.0236
     72 H           2.2418   -1.4962    0.0000 H       1  UNL1        0.0268
     73 H           2.6383   -2.1891    0.0000 H       1  UNL1        0.0268
     74 H           4.4472    0.9938    0.0000 H       1  UNL1        0.0233
     75 H           3.8393    1.6256    0.0000 H       1  UNL1        0.0233
     76 H           3.2075    1.0177    0.0000 H       1  UNL1        0.0233
     77 H          10.9825    3.7130    0.0000 H       1  UNL1        0.2098
     78 H           2.3162    0.5212    0.0000 H       1  UNL1        0.0233
     79 H           1.4667    0.3041    0.0000 H       1  UNL1        0.0233
     80 H           1.6838   -0.5454    0.0000 H       1  UNL1        0.0233
     81 H           7.2102   -2.7320    0.0000 H       1  UNL1        0.2094
     82 H           3.8445   -3.7130    0.0000 H       1  UNL1        0.2951
@<TRIPOS>BOND
     1    22     1    1
     2     1    77    1
     3     2    24    1
     4     2    81    1
     5     3    32    1
     6     3    82    1
     7     4    32    2
     8     5     6    1
     9     5     8    1
    10     5    10    1
    11     5    20    1
    12     6     7    1
    13     6    15    1
    14     6    35    1
    15     7     9    1
    16     7    18    1
    17     7    23    1
    18     8    11    1
    19     8    16    1
    20     8    24    1
    21     9    12    1
    22     9    13    1
    23     9    36    1
    24    10    12    1
    25    10    37    1
    26    10    38    1
    27    11    14    1
    28    11    21    2
    29    12    39    1
    30    12    40    1
    31    13    22    1
    32    13    29    1
    33    13    30    1
    34    14    17    1
    35    14    25    1
    36    14    41    1
    37    15    21    1
    38    15    42    1
    39    15    43    1
    40    16    19    1
    41    16    44    1
    42    16    45    1
    43    17    19    1
    44    17    27    1
    45    17    32    1
    46    18    26    1
    47    18    46    1
    48    18    47    1
    49    19    48    1
    50    19    49    1
    51    20    50    1
    52    20    51    1
    53    20    52    1
    54    21    53    1
    55    22    26    1
    56    22    54    1
    57    23    55    1
    58    23    56    1
    59    23    57    1
    60    24    58    1
    61    24    59    1
    62    25    28    1
    63    25    33    1
    64    25    60    1
    65    26    61    1
    66    26    62    1
    67    27    31    1
    68    27    63    1
    69    27    64    1
    70    28    31    1
    71    28    34    1
    72    28    65    1
    73    29    66    1
    74    29    70    1
    75    29    71    1
    76    30    67    1
    77    30    68    1
    78    30    69    1
    79    31    72    1
    80    31    73    1
    81    33    74    1
    82    33    75    1
    83    33    76    1
    84    34    78    1
    85    34    79    1
    86    34    80    1
