@<TRIPOS>MOLECULE
IMPHY009979
 48 49 0 0 0
SMALL
GASTEIGER

@<TRIPOS>ATOM
      1 O           6.3301   -1.0000    0.0000 O.3     1  UNL1       -0.4871
      2 O           8.0901   -4.0347    0.0000 O.2     1  UNL1       -0.4219
      3 O           4.5981   -4.0000    0.0000 O.3     1  UNL1       -0.4949
      4 O           9.8602   -4.0242    0.0000 O.2     1  UNL1       -0.2452
      5 C           4.5981    2.0000    0.0000 C.3     1  UNL1       -0.0285
      6 C           3.7320    2.5000    0.0000 C.3     1  UNL1       -0.0308
      7 C           4.5981    1.0000    0.0000 C.2     1  UNL1       -0.0731
      8 C           5.4641    0.5000    0.0000 C.2     1  UNL1       -0.0481
      9 C           5.4641   -0.5000    0.0000 C.3     1  UNL1        0.1081
     10 C           7.1962   -2.5000    0.0000 C.ar    1  UNL1        0.0595
     11 C           6.3301   -2.0000    0.0000 C.ar    1  UNL1        0.1351
     12 C           3.7320    3.5000    0.0000 C.2     1  UNL1       -0.0850
     13 C           3.7320    0.5000    0.0000 C.3     1  UNL1       -0.0437
     14 C           7.1962   -3.5000    0.0000 C.ar    1  UNL1        0.1460
     15 C           2.8660    4.0000    0.0000 C.2     1  UNL1       -0.0796
     16 C           5.4641   -2.5000    0.0000 C.ar    1  UNL1        0.0226
     17 C           5.4641   -3.5000    0.0000 C.ar    1  UNL1        0.1271
     18 C           6.3301   -4.0000    0.0000 C.ar    1  UNL1        0.0233
     19 C           8.0901   -1.9653    0.0000 C.ar    1  UNL1       -0.0408
     20 C           2.8660    5.0000    0.0000 C.3     1  UNL1       -0.0440
     21 C           2.0000    3.5000    0.0000 C.3     1  UNL1       -0.0440
     22 C           8.9962   -2.4792    0.0000 C.ar    1  UNL1        0.0237
     23 C           8.9962   -3.5208    0.0000 C.ar    1  UNL1        0.3372
     24 C           4.5981   -5.0000    0.0000 C.3     1  UNL1        0.0788
     25 H           5.2087    1.8923    0.0000 H       1  UNL1        0.0313
     26 H           4.8101    2.5826    0.0000 H       1  UNL1        0.0313
     27 H           3.1215    2.6077    0.0000 H       1  UNL1        0.0310
     28 H           3.5200    1.9174    0.0000 H       1  UNL1        0.0310
     29 H           6.0010    0.8100    0.0000 H       1  UNL1        0.0605
     30 H           4.8535   -0.3923    0.0000 H       1  UNL1        0.0742
     31 H           5.2520   -1.0826    0.0000 H       1  UNL1        0.0742
     32 H           4.2690    3.8100    0.0000 H       1  UNL1        0.0572
     33 H           3.4220    1.0369    0.0000 H       1  UNL1        0.0274
     34 H           3.1951    0.1900    0.0000 H       1  UNL1        0.0274
     35 H           4.0420   -0.0369    0.0000 H       1  UNL1        0.0274
     36 H           4.9272   -2.1900    0.0000 H       1  UNL1        0.0691
     37 H           6.3301   -4.6200    0.0000 H       1  UNL1        0.0691
     38 H           8.0829   -1.3454    0.0000 H       1  UNL1        0.0628
     39 H           1.6900    4.0369    0.0000 H       1  UNL1        0.0274
     40 H           1.4631    3.1900    0.0000 H       1  UNL1        0.0274
     41 H           2.3100    2.9631    0.0000 H       1  UNL1        0.0274
     42 H           3.4860    5.0000    0.0000 H       1  UNL1        0.0274
     43 H           2.8660    5.6200    0.0000 H       1  UNL1        0.0274
     44 H           2.2460    5.0000    0.0000 H       1  UNL1        0.0274
     45 H           9.5319   -2.1671    0.0000 H       1  UNL1        0.0689
     46 H           3.9781   -5.0000    0.0000 H       1  UNL1        0.0660
     47 H           4.5981   -5.6200    0.0000 H       1  UNL1        0.0660
     48 H           5.2181   -5.0000    0.0000 H       1  UNL1        0.0660
@<TRIPOS>BOND
     1     1     9    1
     2     1    11    1
     3     2    14   ar
     4     2    23   ar
     5     3    17    1
     6     3    24    1
     7     4    23    2
     8     5     6    1
     9     5     7    1
    10     5    25    1
    11     5    26    1
    12     6    12    1
    13     6    27    1
    14     6    28    1
    15     7     8    2
    16     7    13    1
    17     8     9    1
    18     8    29    1
    19     9    30    1
    20     9    31    1
    21    10    11   ar
    22    10    14   ar
    23    10    19   ar
    24    11    16   ar
    25    12    15    2
    26    12    32    1
    27    13    33    1
    28    13    34    1
    29    13    35    1
    30    14    18   ar
    31    15    20    1
    32    15    21    1
    33    16    17   ar
    34    16    36    1
    35    17    18   ar
    36    18    37    1
    37    19    22   ar
    38    19    38    1
    39    20    42    1
    40    20    43    1
    41    20    44    1
    42    21    39    1
    43    21    40    1
    44    21    41    1
    45    22    23   ar
    46    22    45    1
    47    24    46    1
    48    24    47    1
    49    24    48    1
