@<TRIPOS>MOLECULE
IMPHY001196
 67 71 0 0 0
SMALL
GASTEIGER

@<TRIPOS>ATOM
      1 O           7.4188   -0.3245    0.0000 O.3     1  UNL1       -0.4796
      2 O           2.1359    3.9077    0.0000 O.2     1  UNL1       -0.2968
      3 O           6.0890   -3.0755    0.0000 O.2     1  UNL1       -0.4268
      4 O           4.5752   -2.1579    0.0000 O.2     1  UNL1       -0.2448
      5 C           4.8498    2.2980    0.0000 C.3     1  UNL1       -0.0245
      6 C           5.7438    0.7633    0.0000 C.3     1  UNL1        0.0153
      7 C           5.7438    1.7633    0.0000 C.3     1  UNL1       -0.0257
      8 C           3.9438    1.7841    0.0000 C.3     1  UNL1       -0.0235
      9 C           6.6098    0.2633    0.0000 C.3     1  UNL1        0.1412
     10 C           4.8498    0.2287    0.0000 C.3     1  UNL1       -0.0431
     11 C           3.9438    0.7425    0.0000 C.3     1  UNL1       -0.0482
     12 C           3.0000    2.3194    0.0000 C.3     1  UNL1        0.0267
     13 C           6.6098    2.2633    0.0000 C.3     1  UNL1       -0.0453
     14 C           4.8749    3.3827    0.0000 C.3     1  UNL1       -0.0404
     15 C           5.7197    2.7913    0.0000 C.3     1  UNL1       -0.0590
     16 C           5.2439   -0.1028    0.0000 C.3     1  UNL1       -0.0553
     17 C           7.4758    0.7633    0.0000 C.2     1  UNL1       -0.0329
     18 C           7.4758    1.7633    0.0000 C.3     1  UNL1       -0.0280
     19 C           3.9438    3.9396    0.0000 C.3     1  UNL1        0.0069
     20 C           5.8008   -0.3245    0.0000 C.3     1  UNL1        0.0271
     21 C           3.0000    3.4044    0.0000 C.2     1  UNL1        0.1392
     22 C           2.0000    2.3155    0.0000 C.3     1  UNL1       -0.0528
     23 C           2.5033    1.4514    0.0000 C.3     1  UNL1       -0.0528
     24 C           6.1098   -1.2755    0.0000 C.ar    1  UNL1        0.0829
     25 C           7.1098   -1.2755    0.0000 C.ar    1  UNL1        0.1380
     26 C           8.3419    0.2633    0.0000 C.2     1  UNL1       -0.0957
     27 C           7.6445   -2.1695    0.0000 C.ar    1  UNL1        0.0295
     28 C           5.5752   -2.1695    0.0000 C.ar    1  UNL1        0.3438
     29 C           7.1306   -3.0755    0.0000 C.ar    1  UNL1        0.1124
     30 C           8.6444   -2.1579    0.0000 C.3     1  UNL1       -0.0331
     31 C           7.6340   -3.9396    0.0000 C.3     1  UNL1       -0.0058
     32 H           6.4799    1.3383    0.0000 H       1  UNL1        0.0313
     33 H           3.2093    1.3563    0.0000 H       1  UNL1        0.0315
     34 H           4.4562   -0.2504    0.0000 H       1  UNL1        0.0272
     35 H           5.2544   -0.2411    0.0000 H       1  UNL1        0.0272
     36 H           3.3329    0.8486    0.0000 H       1  UNL1        0.0269
     37 H           3.7347    0.1588    0.0000 H       1  UNL1        0.0269
     38 H           7.0083    2.7383    0.0000 H       1  UNL1        0.0271
     39 H           6.2113    2.7383    0.0000 H       1  UNL1        0.0271
     40 H           5.4832    3.2625    0.0000 H       1  UNL1        0.0275
     41 H           5.0974    3.9614    0.0000 H       1  UNL1        0.0275
     42 H           6.0256    2.2520    0.0000 H       1  UNL1        0.0235
     43 H           6.2590    3.0972    0.0000 H       1  UNL1        0.0235
     44 H           5.4138    3.3306    0.0000 H       1  UNL1        0.0235
     45 H           4.7069    0.2071    0.0000 H       1  UNL1        0.0237
     46 H           4.9340   -0.6398    0.0000 H       1  UNL1        0.0237
     47 H           5.7809   -0.4127    0.0000 H       1  UNL1        0.0237
     48 H           8.0864    1.6557    0.0000 H       1  UNL1        0.0311
     49 H           7.6879    2.3459    0.0000 H       1  UNL1        0.0311
     50 H           4.3484    4.4094    0.0000 H       1  UNL1        0.0342
     51 H           3.5502    4.4186    0.0000 H       1  UNL1        0.0342
     52 H           5.4908    0.2125    0.0000 H       1  UNL1        0.0359
     53 H           5.2344   -0.5766    0.0000 H       1  UNL1        0.0359
     54 H           1.9976    2.9355    0.0000 H       1  UNL1        0.0239
     55 H           1.3800    2.3131    0.0000 H       1  UNL1        0.0239
     56 H           2.0024    1.6955    0.0000 H       1  UNL1        0.0239
     57 H           1.9652    1.7594    0.0000 H       1  UNL1        0.0239
     58 H           2.1954    0.9133    0.0000 H       1  UNL1        0.0239
     59 H           3.0415    1.1435    0.0000 H       1  UNL1        0.0239
     60 H           8.3419   -0.3567    0.0000 H       1  UNL1        0.0536
     61 H           8.8788    0.5733    0.0000 H       1  UNL1        0.0536
     62 H           8.6516   -2.7778    0.0000 H       1  UNL1        0.0280
     63 H           9.2644   -2.1507    0.0000 H       1  UNL1        0.0280
     64 H           8.6372   -1.5379    0.0000 H       1  UNL1        0.0280
     65 H           7.0982   -4.2517    0.0000 H       1  UNL1        0.0308
     66 H           7.9460   -4.4754    0.0000 H       1  UNL1        0.0308
     67 H           8.1697   -3.6276    0.0000 H       1  UNL1        0.0308
@<TRIPOS>BOND
     1     9     1    1
     2     1    25    1
     3     2    21    2
     4     3    28   ar
     5     3    29   ar
     6     4    28    2
     7     5     7    1
     8     5     8    1
     9     5    14    1
    10     5    15    1
    11     6     7    1
    12     6     9    1
    13     6    10    1
    14     6    16    1
    15     7    13    1
    16     7    32    1
    17     8    11    1
    18     8    12    1
    19     8    33    1
    20     9    17    1
    21     9    20    1
    22    10    11    1
    23    10    34    1
    24    10    35    1
    25    11    36    1
    26    11    37    1
    27    12    21    1
    28    12    22    1
    29    12    23    1
    30    13    18    1
    31    13    38    1
    32    13    39    1
    33    14    19    1
    34    14    40    1
    35    14    41    1
    36    15    42    1
    37    15    43    1
    38    15    44    1
    39    16    45    1
    40    16    46    1
    41    16    47    1
    42    17    18    1
    43    17    26    2
    44    18    48    1
    45    18    49    1
    46    19    21    1
    47    19    50    1
    48    19    51    1
    49    20    24    1
    50    20    52    1
    51    20    53    1
    52    22    54    1
    53    22    55    1
    54    22    56    1
    55    23    57    1
    56    23    58    1
    57    23    59    1
    58    24    25   ar
    59    24    28   ar
    60    25    27   ar
    61    26    60    1
    62    26    61    1
    63    27    29   ar
    64    27    30    1
    65    29    31    1
    66    30    62    1
    67    30    63    1
    68    30    64    1
    69    31    65    1
    70    31    66    1
    71    31    67    1
