@<TRIPOS>MOLECULE
IMPHY013109
 30 30 0 0 0
SMALL
GASTEIGER

@<TRIPOS>ATOM
      1 S           4.5981   -0.2500    0.0000 S.3     1  UNL1       -0.1324
      2 S           2.8660   -0.2500    0.0000 S.3     1  UNL1       -0.1324
      3 S           3.7320    1.2500    0.0000 S.3     1  UNL1       -0.1324
      4 C           3.7320   -0.7500    0.0000 C.3     1  UNL1        0.0528
      5 C           4.5981    0.7500    0.0000 C.3     1  UNL1        0.0528
      6 C           2.8660    0.7500    0.0000 C.3     1  UNL1        0.0528
      7 C           3.7320   -1.7500    0.0000 C.3     1  UNL1       -0.0347
      8 C           5.4641    1.2500    0.0000 C.3     1  UNL1       -0.0347
      9 C           2.0000    1.2500    0.0000 C.3     1  UNL1       -0.0347
     10 C           2.8660   -2.2500    0.0000 C.3     1  UNL1       -0.0635
     11 C           6.3301    0.7500    0.0000 C.3     1  UNL1       -0.0635
     12 C           2.0000    2.2500    0.0000 C.3     1  UNL1       -0.0635
     13 H           4.2690   -1.0600    0.0000 H       1  UNL1        0.0526
     14 H           4.5981    1.3700    0.0000 H       1  UNL1        0.0526
     15 H           2.8660    1.3700    0.0000 H       1  UNL1        0.0526
     16 H           3.9441   -2.3326    0.0000 H       1  UNL1        0.0281
     17 H           4.3426   -1.6423    0.0000 H       1  UNL1        0.0281
     18 H           5.8626    1.7250    0.0000 H       1  UNL1        0.0281
     19 H           5.0656    1.7250    0.0000 H       1  UNL1        0.0281
     20 H           1.3894    1.3577    0.0000 H       1  UNL1        0.0281
     21 H           1.7880    0.6674    0.0000 H       1  UNL1        0.0281
     22 H           2.5560   -1.7131    0.0000 H       1  UNL1        0.0230
     23 H           2.3291   -2.5600    0.0000 H       1  UNL1        0.0230
     24 H           3.1760   -2.7869    0.0000 H       1  UNL1        0.0230
     25 H           6.0201    0.2131    0.0000 H       1  UNL1        0.0230
     26 H           6.8671    0.4400    0.0000 H       1  UNL1        0.0230
     27 H           6.6401    1.2869    0.0000 H       1  UNL1        0.0230
     28 H           2.6200    2.2500    0.0000 H       1  UNL1        0.0230
     29 H           2.0000    2.8700    0.0000 H       1  UNL1        0.0230
     30 H           1.3800    2.2500    0.0000 H       1  UNL1        0.0230
@<TRIPOS>BOND
     1     1     4    1
     2     1     5    1
     3     2     4    1
     4     2     6    1
     5     3     5    1
     6     3     6    1
     7     4     7    1
     8     4    13    1
     9     5     8    1
    10     5    14    1
    11     6     9    1
    12     6    15    1
    13     7    10    1
    14     7    16    1
    15     7    17    1
    16     8    11    1
    17     8    18    1
    18     8    19    1
    19     9    12    1
    20     9    20    1
    21     9    21    1
    22    10    22    1
    23    10    23    1
    24    10    24    1
    25    11    25    1
    26    11    26    1
    27    11    27    1
    28    12    28    1
    29    12    29    1
    30    12    30    1
