@<TRIPOS>MOLECULE
IMPHY017168
 35 34 0 0 0
SMALL
GASTEIGER

@<TRIPOS>ATOM
      1 O           3.7320   -0.8660    0.0000 O.3     1  UNL1       -0.3699
      2 C           4.5981   -0.3660    0.0000 C.3     1  UNL1        0.0848
      3 C           5.4641    0.1340    0.0000 C.3     1  UNL1       -0.0170
      4 C           6.3301   -0.3660    0.0000 C.3     1  UNL1       -0.0316
      5 C           5.0981   -1.2320    0.0000 C.3     1  UNL1       -0.0322
      6 C           4.0981    0.5000    0.0000 C.2     1  UNL1       -0.0600
      7 C           7.1962    0.1340    0.0000 C.2     1  UNL1       -0.0852
      8 C           2.8660   -0.3660    0.0000 C.3     1  UNL1        0.0460
      9 C           8.0622   -0.3660    0.0000 C.2     1  UNL1       -0.0796
     10 C           4.5981    1.3660    0.0000 C.2     1  UNL1       -0.1000
     11 C           2.0000   -0.8660    0.0000 C.3     1  UNL1       -0.0415
     12 C           8.9282    0.1340    0.0000 C.3     1  UNL1       -0.0440
     13 C           8.0622   -1.3660    0.0000 C.3     1  UNL1       -0.0440
     14 H           5.8626    0.6089    0.0000 H       1  UNL1        0.0299
     15 H           5.0656    0.6089    0.0000 H       1  UNL1        0.0299
     16 H           5.9316   -0.8410    0.0000 H       1  UNL1        0.0308
     17 H           6.7287   -0.8410    0.0000 H       1  UNL1        0.0308
     18 H           4.5611   -1.5420    0.0000 H       1  UNL1        0.0260
     19 H           5.4081   -1.7690    0.0000 H       1  UNL1        0.0260
     20 H           5.6350   -0.9221    0.0000 H       1  UNL1        0.0260
     21 H           3.4781    0.5000    0.0000 H       1  UNL1        0.0594
     22 H           7.1962    0.7540    0.0000 H       1  UNL1        0.0571
     23 H           3.2646    0.1089    0.0000 H       1  UNL1        0.0557
     24 H           2.4675    0.1089    0.0000 H       1  UNL1        0.0557
     25 H           5.2181    1.3660    0.0000 H       1  UNL1        0.0533
     26 H           4.2881    1.9030    0.0000 H       1  UNL1        0.0533
     27 H           1.6900   -0.3291    0.0000 H       1  UNL1        0.0252
     28 H           1.4631   -1.1760    0.0000 H       1  UNL1        0.0252
     29 H           2.3100   -1.4030    0.0000 H       1  UNL1        0.0252
     30 H           9.2382   -0.4030    0.0000 H       1  UNL1        0.0274
     31 H           9.4651    0.4440    0.0000 H       1  UNL1        0.0274
     32 H           8.6182    0.6709    0.0000 H       1  UNL1        0.0274
     33 H           7.4422   -1.3660    0.0000 H       1  UNL1        0.0274
     34 H           8.0622   -1.9860    0.0000 H       1  UNL1        0.0274
     35 H           8.6822   -1.3660    0.0000 H       1  UNL1        0.0274
@<TRIPOS>BOND
     1     1     2    1
     2     1     8    1
     3     2     3    1
     4     2     5    1
     5     2     6    1
     6     3     4    1
     7     3    14    1
     8     3    15    1
     9     4     7    1
    10     4    16    1
    11     4    17    1
    12     5    18    1
    13     5    19    1
    14     5    20    1
    15     6    10    2
    16     6    21    1
    17     7     9    2
    18     7    22    1
    19     8    11    1
    20     8    23    1
    21     8    24    1
    22     9    12    1
    23     9    13    1
    24    10    25    1
    25    10    26    1
    26    11    27    1
    27    11    28    1
    28    11    29    1
    29    12    30    1
    30    12    31    1
    31    12    32    1
    32    13    33    1
    33    13    34    1
    34    13    35    1
