@<TRIPOS>MOLECULE
IMPHY006024
 34 33 0 0 0
SMALL
GASTEIGER

@<TRIPOS>ATOM
      1 O           3.7320    1.5000    0.0000 O.3     1  UNL1       -0.3516
      2 O           4.5981    0.0000    0.0000 O.3     1  UNL1       -0.3516
      3 C           6.3301    1.0000    0.0000 C.3     1  UNL1       -0.0485
      4 C           5.4641    1.5000    0.0000 C.3     1  UNL1       -0.0016
      5 C           7.1962    1.5000    0.0000 C.3     1  UNL1       -0.0531
      6 C           4.5981    1.0000    0.0000 C.3     1  UNL1        0.1591
      7 C           8.0622    1.0000    0.0000 C.3     1  UNL1       -0.0559
      8 C           8.9282    1.5000    0.0000 C.3     1  UNL1       -0.0653
      9 C           2.8660    1.0000    0.0000 C.3     1  UNL1        0.0478
     10 C           3.7320   -0.5000    0.0000 C.3     1  UNL1        0.0478
     11 C           2.0000    1.5000    0.0000 C.3     1  UNL1       -0.0415
     12 C           3.7320   -1.5000    0.0000 C.3     1  UNL1       -0.0415
     13 H           5.9316    0.5251    0.0000 H       1  UNL1        0.0267
     14 H           6.7287    0.5251    0.0000 H       1  UNL1        0.0267
     15 H           5.8626    1.9750    0.0000 H       1  UNL1        0.0314
     16 H           5.0656    1.9750    0.0000 H       1  UNL1        0.0314
     17 H           7.5947    1.9750    0.0000 H       1  UNL1        0.0265
     18 H           6.7976    1.9750    0.0000 H       1  UNL1        0.0265
     19 H           4.5981    1.6200    0.0000 H       1  UNL1        0.0909
     20 H           7.6636    0.5251    0.0000 H       1  UNL1        0.0263
     21 H           8.4607    0.5251    0.0000 H       1  UNL1        0.0263
     22 H           9.2382    0.9631    0.0000 H       1  UNL1        0.0230
     23 H           9.4651    1.8100    0.0000 H       1  UNL1        0.0230
     24 H           8.6182    2.0369    0.0000 H       1  UNL1        0.0230
     25 H           3.5200    0.0826    0.0000 H       1  UNL1        0.0558
     26 H           3.1215   -0.6077    0.0000 H       1  UNL1        0.0558
     27 H           2.4675    0.5251    0.0000 H       1  UNL1        0.0558
     28 H           3.2646    0.5251    0.0000 H       1  UNL1        0.0558
     29 H           3.1120   -1.5000    0.0000 H       1  UNL1        0.0252
     30 H           3.7320   -2.1200    0.0000 H       1  UNL1        0.0252
     31 H           4.3520   -1.5000    0.0000 H       1  UNL1        0.0252
     32 H           2.3100    2.0369    0.0000 H       1  UNL1        0.0252
     33 H           1.4631    1.8100    0.0000 H       1  UNL1        0.0252
     34 H           1.6900    0.9631    0.0000 H       1  UNL1        0.0252
@<TRIPOS>BOND
     1     1     6    1
     2     1     9    1
     3     2     6    1
     4     2    10    1
     5     3     4    1
     6     3     5    1
     7     3    13    1
     8     3    14    1
     9     4     6    1
    10     4    15    1
    11     4    16    1
    12     5     7    1
    13     5    17    1
    14     5    18    1
    15     6    19    1
    16     7     8    1
    17     7    20    1
    18     7    21    1
    19     8    22    1
    20     8    23    1
    21     8    24    1
    22     9    11    1
    23     9    27    1
    24     9    28    1
    25    10    12    1
    26    10    25    1
    27    10    26    1
    28    11    32    1
    29    11    33    1
    30    11    34    1
    31    12    29    1
    32    12    30    1
    33    12    31    1
