@<TRIPOS>MOLECULE
IMPHY000990
 49 52 0 0 0
SMALL
GASTEIGER

@<TRIPOS>ATOM
      1 O           4.2690   -1.1624    0.0000 O.3     1  UNL1       -0.3405
      2 O           6.0010   -1.1624    0.0000 O.3     1  UNL1       -0.3410
      3 O           4.2690   -4.1624    0.0000 O.3     1  UNL1       -0.3864
      4 O           2.5369   -3.1624    0.0000 O.3     1  UNL1       -0.3865
      5 O           6.0010   -3.1624    0.0000 O.3     1  UNL1       -0.3841
      6 O           2.5369   -0.1624    0.0000 O.3     1  UNL1       -0.3924
      7 O           6.8711    1.3792    0.0000 O.2     1  UNL1       -0.4569
      8 O           8.8448    4.3655    0.0000 O.2     1  UNL1       -0.4627
      9 O          10.3791    1.3996    0.0000 O.3     1  UNL1       -0.4936
     10 O           9.5408   -0.1351    0.0000 O.2     1  UNL1       -0.2869
     11 C           4.2690   -3.1624    0.0000 C.3     1  UNL1        0.1141
     12 C           3.4030   -2.6624    0.0000 C.3     1  UNL1        0.1119
     13 C           5.1350   -2.6624    0.0000 C.3     1  UNL1        0.1341
     14 C           3.4030   -1.6624    0.0000 C.3     1  UNL1        0.1130
     15 C           5.1350   -1.6624    0.0000 C.3     1  UNL1        0.1884
     16 C           2.5369   -1.1624    0.0000 C.3     1  UNL1        0.0730
     17 C           6.0010   -0.1624    0.0000 C.3     1  UNL1        0.1086
     18 C           6.8671    0.3376    0.0000 C.ar    1  UNL1        0.1349
     19 C           8.6471    1.3929    0.0000 C.ar    1  UNL1        0.1063
     20 C           7.7791    1.8896    0.0000 C.ar    1  UNL1        0.1459
     21 C           7.7711   -0.1797    0.0000 C.ar    1  UNL1        0.0263
     22 C           8.6671    0.3515    0.0000 C.ar    1  UNL1        0.1964
     23 C           9.5112    1.8963    0.0000 C.ar    1  UNL1        0.1452
     24 C           9.5073    2.8963    0.0000 C.ar    1  UNL1        0.0627
     25 C           8.6394    3.3929    0.0000 C.ar    1  UNL1        0.1418
     26 C           7.7753    2.8896    0.0000 C.ar    1  UNL1        0.0245
     27 C          10.2417    3.5662    0.0000 C.ar    1  UNL1       -0.0126
     28 C           9.8331    4.4724    0.0000 C.ar    1  UNL1        0.0933
     29 C          11.2432    1.9029    0.0000 C.3     1  UNL1        0.0788
     30 H           3.7320   -3.4724    0.0000 H       1  UNL1        0.0648
     31 H           3.4030   -3.2824    0.0000 H       1  UNL1        0.0647
     32 H           5.1350   -3.2824    0.0000 H       1  UNL1        0.0671
     33 H           3.4030   -1.0424    0.0000 H       1  UNL1        0.0647
     34 H           5.1350   -1.0424    0.0000 H       1  UNL1        0.0938
     35 H           1.9264   -1.0547    0.0000 H       1  UNL1        0.0584
     36 H           2.3249   -1.7450    0.0000 H       1  UNL1        0.0584
     37 H           3.7320   -4.4724    0.0000 H       1  UNL1        0.2100
     38 H           2.0000   -2.8524    0.0000 H       1  UNL1        0.2100
     39 H           6.5380   -2.8524    0.0000 H       1  UNL1        0.2101
     40 H           5.7890    0.4202    0.0000 H       1  UNL1        0.0642
     41 H           5.3905   -0.2701    0.0000 H       1  UNL1        0.0642
     42 H           2.0000    0.1476    0.0000 H       1  UNL1        0.2095
     43 H           7.7759   -0.7997    0.0000 H       1  UNL1        0.0690
     44 H           7.2371    3.1975    0.0000 H       1  UNL1        0.0692
     45 H          10.8489    3.4407    0.0000 H       1  UNL1        0.0656
     46 H          10.1411    5.0105    0.0000 H       1  UNL1        0.1030
     47 H          11.5553    1.3672    0.0000 H       1  UNL1        0.0660
     48 H          11.7789    2.2150    0.0000 H       1  UNL1        0.0660
     49 H          10.9311    2.4387    0.0000 H       1  UNL1        0.0660
@<TRIPOS>BOND
     1     1    14    1
     2     1    15    1
     3    15     2    1
     4     2    17    1
     5    11     3    1
     6     3    37    1
     7    12     4    1
     8     4    38    1
     9    13     5    1
    10     5    39    1
    11     6    16    1
    12     6    42    1
    13     7    18   ar
    14     7    20   ar
    15     8    25   ar
    16     8    28   ar
    17     9    23    1
    18     9    29    1
    19    10    22    2
    20    11    12    1
    21    11    13    1
    22    11    30    1
    23    12    14    1
    24    12    31    1
    25    13    15    1
    26    13    32    1
    27    14    16    1
    28    14    33    1
    29    15    34    1
    30    16    35    1
    31    16    36    1
    32    17    18    1
    33    17    40    1
    34    17    41    1
    35    18    21   ar
    36    19    20   ar
    37    19    22   ar
    38    19    23   ar
    39    20    26   ar
    40    21    22   ar
    41    21    43    1
    42    23    24   ar
    43    24    25   ar
    44    24    27   ar
    45    25    26   ar
    46    26    44    1
    47    27    28   ar
    48    27    45    1
    49    28    46    1
    50    29    47    1
    51    29    48    1
    52    29    49    1
