@<TRIPOS>MOLECULE
IMPHY006323
 31 33 0 0 0
SMALL
GASTEIGER

@<TRIPOS>ATOM
      1 O           5.5301   -1.0223    0.0000 O.2     1  UNL1       -0.4546
      2 O           3.7817    2.0123    0.0000 O.3     1  UNL1       -0.4943
      3 O           2.0000   -1.0464    0.0000 O.2     1  UNL1       -0.2877
      4 C           4.6641    0.4777    0.0000 C.ar    1  UNL1        0.0592
      5 C           4.6641   -0.5223    0.0000 C.ar    1  UNL1        0.1427
      6 C           6.3961   -0.5223    0.0000 C.ar    1  UNL1        0.1356
      7 C           3.7702    1.0124    0.0000 C.ar    1  UNL1        0.1344
      8 C           5.5301    0.9777    0.0000 C.ar    1  UNL1       -0.0441
      9 C           7.2622   -1.0223    0.0000 C.ar    1  UNL1        0.0173
     10 C           6.3961    0.4777    0.0000 C.ar    1  UNL1       -0.0180
     11 C           3.7702   -1.0570    0.0000 C.ar    1  UNL1        0.0282
     12 C           2.8641    0.4985    0.0000 C.ar    1  UNL1        0.0276
     13 C           2.8641   -0.5431    0.0000 C.ar    1  UNL1        0.1860
     14 C           7.2622   -2.0223    0.0000 C.ar    1  UNL1       -0.0511
     15 C           8.1282   -0.5223    0.0000 C.ar    1  UNL1       -0.0511
     16 C           8.1282   -2.5223    0.0000 C.ar    1  UNL1       -0.0611
     17 C           8.9942   -1.0223    0.0000 C.ar    1  UNL1       -0.0611
     18 C           8.9942   -2.0223    0.0000 C.ar    1  UNL1       -0.0617
     19 C           2.9215    2.5223    0.0000 C.3     1  UNL1        0.0788
     20 H           5.5301    1.5977    0.0000 H       1  UNL1        0.0627
     21 H           6.9331    0.7877    0.0000 H       1  UNL1        0.0655
     22 H           3.7773   -1.6769    0.0000 H       1  UNL1        0.0693
     23 H           2.3284    0.8106    0.0000 H       1  UNL1        0.0693
     24 H           6.7252   -2.3323    0.0000 H       1  UNL1        0.0625
     25 H           8.1282    0.0977    0.0000 H       1  UNL1        0.0625
     26 H           8.1282   -3.1423    0.0000 H       1  UNL1        0.0618
     27 H           9.5312   -0.7123    0.0000 H       1  UNL1        0.0618
     28 H           9.5312   -2.3323    0.0000 H       1  UNL1        0.0618
     29 H           3.2377    3.0556    0.0000 H       1  UNL1        0.0660
     30 H           2.3882    2.8385    0.0000 H       1  UNL1        0.0660
     31 H           2.6054    1.9890    0.0000 H       1  UNL1        0.0660
@<TRIPOS>BOND
     1     1     5   ar
     2     1     6   ar
     3     2     7    1
     4     2    19    1
     5     3    13    2
     6     4     5    1
     7     4     7   ar
     8     4     8   ar
     9     5    11   ar
    10     6     9    1
    11     6    10   ar
    12     7    12   ar
    13     8    10   ar
    14     8    20    1
    15     9    14   ar
    16     9    15   ar
    17    10    21    1
    18    11    13   ar
    19    11    22    1
    20    12    13   ar
    21    12    23    1
    22    14    16   ar
    23    14    24    1
    24    15    17   ar
    25    15    25    1
    26    16    18   ar
    27    16    26    1
    28    17    18   ar
    29    17    27    1
    30    18    28    1
    31    19    29    1
    32    19    30    1
    33    19    31    1
