@<TRIPOS>MOLECULE
IMPHY000372
 113 123 0 0 0
SMALL
GASTEIGER

@<TRIPOS>ATOM
      1 O           3.7398   -0.1098    0.0000 O.3     1  UNL1       -0.3631
      2 O          12.0029    3.7973    0.0000 O.3     1  UNL1       -0.4570
      3 O           9.7022    3.4313    0.0000 O.3     1  UNL1       -0.3733
      4 O           8.7641   -2.0387    0.0000 O.3     1  UNL1       -0.4671
      5 O           6.2967    0.5029    0.0000 O.3     1  UNL1       -0.4947
      6 O           9.2641   -1.1727    0.0000 O.2     1  UNL1       -0.2494
      7 O           9.7022    4.4313    0.0000 O.3     1  UNL1       -0.4658
      8 O          10.5682    4.9313    0.0000 O.2     1  UNL1       -0.2474
      9 O          12.0029    5.5294    0.0000 O.2     1  UNL1       -0.2512
     10 N           4.6381   -2.7073    0.0000 N.3     1  UNL1       -0.2950
     11 N          11.9703    0.5029    0.0000 N.3     1  UNL1       -0.2939
     12 N           9.1661    2.1218    0.0000 N.pl3   1  UNL1       -0.3252
     13 N           8.0011   -2.8398    0.0000 N.2     1  UNL1       -0.2538
     14 C           5.5320   -2.1727    0.0000 C.3     1  UNL1        0.0307
     15 C           5.5320   -1.1727    0.0000 C.3     1  UNL1        0.0065
     16 C           4.6381   -0.6380    0.0000 C.3     1  UNL1        0.0939
     17 C           6.3980   -2.6727    0.0000 C.3     1  UNL1        0.0543
     18 C           3.7320   -1.1518    0.0000 C.3     1  UNL1        0.1086
     19 C          10.5682    1.3123    0.0000 C.3     1  UNL1        0.0369
     20 C          11.5029    1.3123    0.0000 C.3     1  UNL1        0.0348
     21 C           6.3980   -0.6727    0.0000 C.3     1  UNL1       -0.0210
     22 C           3.7320   -2.1935    0.0000 C.3     1  UNL1        0.0308
     23 C           7.2641   -1.1727    0.0000 C.3     1  UNL1        0.1350
     24 C          10.1008    2.1218    0.0000 C.3     1  UNL1        0.0772
     25 C          11.9703    2.1218    0.0000 C.3     1  UNL1        0.0453
     26 C           6.0329   -3.5970    0.0000 C.3     1  UNL1       -0.0238
     27 C           7.2641   -2.1727    0.0000 C.2     1  UNL1        0.0529
     28 C           5.0393   -3.6166    0.0000 C.3     1  UNL1        0.0005
     29 C          10.5682    2.9313    0.0000 C.3     1  UNL1        0.2195
     30 C          10.0563    0.3332    0.0000 C.3     1  UNL1       -0.0272
     31 C           9.1661    0.5028    0.0000 C.ar    1  UNL1       -0.0162
     32 C          11.5029    2.9313    0.0000 C.3     1  UNL1        0.1542
     33 C           2.8622   -1.6452    0.0000 C.3     1  UNL1       -0.0229
     34 C           6.6072   -3.6445    0.0000 C.ar    1  UNL1       -0.0088
     35 C          11.5029   -0.3066    0.0000 C.3     1  UNL1        0.0005
     36 C           7.7641   -0.3066    0.0000 C.ar    1  UNL1        0.0170
     37 C           8.6988    1.3123    0.0000 C.ar    1  UNL1        0.0372
     38 C           8.6988   -0.3066    0.0000 C.ar    1  UNL1       -0.0481
     39 C          12.4703    2.9878    0.0000 C.3     1  UNL1       -0.0418
     40 C          12.9050    2.1218    0.0000 C.2     1  UNL1       -0.0755
     41 C          12.9050    0.5029    0.0000 C.3     1  UNL1        0.0175
     42 C           7.5960   -3.7475    0.0000 C.ar    1  UNL1        0.0680
     43 C           8.2641   -1.1727    0.0000 C.2     1  UNL1        0.3232
     44 C           7.2967    0.5028    0.0000 C.ar    1  UNL1        0.1264
     45 C           7.7641    1.3123    0.0000 C.ar    1  UNL1        0.0017
     46 C          13.3723    1.3123    0.0000 C.2     1  UNL1       -0.0733
     47 C          10.5682    3.9313    0.0000 C.2     1  UNL1        0.3446
     48 C           2.0000   -1.1385    0.0000 C.3     1  UNL1       -0.0625
     49 C           5.9865   -4.4732    0.0000 C.ar    1  UNL1       -0.0556
     50 C           8.3001    2.6218    0.0000 C.3     1  UNL1        0.0011
     51 C          13.4703    2.9878    0.0000 C.3     1  UNL1       -0.0643
     52 C           8.0325   -4.6865    0.0000 C.ar    1  UNL1       -0.0360
     53 C           6.4012   -5.4220    0.0000 C.ar    1  UNL1       -0.0613
     54 C           7.4310   -5.5294    0.0000 C.ar    1  UNL1       -0.0597
     55 C          12.5029    4.6634    0.0000 C.2     1  UNL1        0.3043
     56 C           9.7641   -2.0387    0.0000 C.3     1  UNL1        0.0817
     57 C           5.7967    1.3689    0.0000 C.3     1  UNL1        0.0788
     58 C           9.7022    5.4313    0.0000 C.3     1  UNL1        0.0818
     59 C          13.5029    4.6634    0.0000 C.3     1  UNL1        0.0332
     60 H           4.7959   -1.7477    0.0000 H       1  UNL1        0.0478
     61 H           6.2681   -1.5977    0.0000 H       1  UNL1        0.0343
     62 H           5.0716    0.0931    0.0000 H       1  UNL1        0.0629
     63 H          11.0779    0.5762    0.0000 H       1  UNL1        0.0482
     64 H           6.7966   -0.1977    0.0000 H       1  UNL1        0.0287
     65 H           5.9995   -0.1977    0.0000 H       1  UNL1        0.0287
     66 H           3.1211   -2.0874    0.0000 H       1  UNL1        0.0456
     67 H           3.5229   -2.7772    0.0000 H       1  UNL1        0.0456
     68 H           9.6758    2.8580    0.0000 H       1  UNL1        0.0544
     69 H           5.9635   -4.2131    0.0000 H       1  UNL1        0.0290
     70 H           6.6345   -3.7469    0.0000 H       1  UNL1        0.0290
     71 H           4.4441   -3.7900    0.0000 H       1  UNL1        0.0427
     72 H           5.1330   -4.2294    0.0000 H       1  UNL1        0.0427
     73 H           9.5007    0.6084    0.0000 H       1  UNL1        0.0287
     74 H           9.7932   -0.2282    0.0000 H       1  UNL1        0.0287
     75 H          11.1929    3.4682    0.0000 H       1  UNL1        0.0779
     76 H           2.4600   -2.1170    0.0000 H       1  UNL1        0.0292
     77 H           3.2570   -2.1232    0.0000 H       1  UNL1        0.0292
     78 H          11.2320   -0.8643    0.0000 H       1  UNL1        0.0427
     79 H          12.0506   -0.5973    0.0000 H       1  UNL1        0.0427
     80 H           9.0088   -0.8436    0.0000 H       1  UNL1        0.0625
     81 H          12.5779    3.5984    0.0000 H       1  UNL1        0.0273
     82 H          11.8877    3.1999    0.0000 H       1  UNL1        0.0273
     83 H          13.2150    2.6588    0.0000 H       1  UNL1        0.0577
     84 H          12.7973   -0.1077    0.0000 H       1  UNL1        0.0470
     85 H          13.4876    0.2908    0.0000 H       1  UNL1        0.0470
     86 H           7.4541    1.8493    0.0000 H       1  UNL1        0.0673
     87 H          13.9923    1.3123    0.0000 H       1  UNL1        0.0582
     88 H           2.3141   -0.6040    0.0000 H       1  UNL1        0.0231
     89 H           1.4655   -0.8244    0.0000 H       1  UNL1        0.0231
     90 H           1.6859   -1.6730    0.0000 H       1  UNL1        0.0231
     91 H           5.3706   -4.4018    0.0000 H       1  UNL1        0.0621
     92 H           8.6101    3.1588    0.0000 H       1  UNL1        0.0428
     93 H           7.7632    2.9318    0.0000 H       1  UNL1        0.0428
     94 H           7.9901    2.0849    0.0000 H       1  UNL1        0.0428
     95 H           9.0822    3.4313    0.0000 H       1  UNL1        0.2111
     96 H          13.4703    2.3678    0.0000 H       1  UNL1        0.0230
     97 H          14.0903    2.9879    0.0000 H       1  UNL1        0.0230
     98 H          13.4703    3.6078    0.0000 H       1  UNL1        0.0230
     99 H           8.6498   -4.7436    0.0000 H       1  UNL1        0.0639
    100 H           6.0352   -5.9226    0.0000 H       1  UNL1        0.0618
    101 H           7.6859   -6.0946    0.0000 H       1  UNL1        0.0618
    102 H           9.7641   -2.6587    0.0000 H       1  UNL1        0.0661
    103 H          10.3841   -2.0387    0.0000 H       1  UNL1        0.0661
    104 H           9.7641   -1.4187    0.0000 H       1  UNL1        0.0661
    105 H           6.3336    1.6789    0.0000 H       1  UNL1        0.0660
    106 H           5.4867    1.9058    0.0000 H       1  UNL1        0.0660
    107 H           5.2598    1.0589    0.0000 H       1  UNL1        0.0660
    108 H          10.3222    5.4313    0.0000 H       1  UNL1        0.0661
    109 H           9.7022    6.0513    0.0000 H       1  UNL1        0.0661
    110 H           9.0822    5.4313    0.0000 H       1  UNL1        0.0661
    111 H          13.5029    4.0434    0.0000 H       1  UNL1        0.0342
    112 H          14.1229    4.6634    0.0000 H       1  UNL1        0.0342
    113 H          13.5029    5.2834    0.0000 H       1  UNL1        0.0342
@<TRIPOS>BOND
     1     1    16    1
     2     1    18    1
     3    32     2    1
     4     2    55    1
     5    29     3    1
     6     3    95    1
     7     4    43    1
     8     4    56    1
     9     5    44    1
    10     5    57    1
    11     6    43    2
    12     7    47    1
    13     7    58    1
    14     8    47    2
    15     9    55    2
    16    10    14    1
    17    10    22    1
    18    10    28    1
    19    11    20    1
    20    11    35    1
    21    11    41    1
    22    12    24    1
    23    12    37    1
    24    12    50    1
    25    13    27    2
    26    13    42    1
    27    14    15    1
    28    14    17    1
    29    14    60    1
    30    15    16    1
    31    15    21    1
    32    15    61    1
    33    16    18    1
    34    16    62    1
    35    17    26    1
    36    17    27    1
    37    17    34    1
    38    18    22    1
    39    18    33    1
    40    19    20    1
    41    19    24    1
    42    19    30    1
    43    19    31    1
    44    20    25    1
    45    20    63    1
    46    21    23    1
    47    21    64    1
    48    21    65    1
    49    22    66    1
    50    22    67    1
    51    23    27    1
    52    23    36    1
    53    23    43    1
    54    24    29    1
    55    24    68    1
    56    25    32    1
    57    25    39    1
    58    25    40    1
    59    26    28    1
    60    26    69    1
    61    26    70    1
    62    28    71    1
    63    28    72    1
    64    29    32    1
    65    29    47    1
    66    30    35    1
    67    30    73    1
    68    30    74    1
    69    31    37   ar
    70    31    38   ar
    71    32    75    1
    72    33    48    1
    73    33    76    1
    74    33    77    1
    75    34    42   ar
    76    34    49   ar
    77    35    78    1
    78    35    79    1
    79    36    38   ar
    80    36    44   ar
    81    37    45   ar
    82    38    80    1
    83    39    51    1
    84    39    81    1
    85    39    82    1
    86    40    46    2
    87    40    83    1
    88    41    46    1
    89    41    84    1
    90    41    85    1
    91    42    52   ar
    92    44    45   ar
    93    45    86    1
    94    46    87    1
    95    48    88    1
    96    48    89    1
    97    48    90    1
    98    49    53   ar
    99    49    91    1
   100    50    92    1
   101    50    93    1
   102    50    94    1
   103    51    96    1
   104    51    97    1
   105    51    98    1
   106    52    54   ar
   107    52    99    1
   108    53    54   ar
   109    53   100    1
   110    54   101    1
   111    55    59    1
   112    56   102    1
   113    56   103    1
   114    56   104    1
   115    57   105    1
   116    57   106    1
   117    57   107    1
   118    58   108    1
   119    58   109    1
   120    58   110    1
   121    59   111    1
   122    59   112    1
   123    59   113    1
