@<TRIPOS>MOLECULE
IMPHY004009
 43 45 0 0 0
SMALL
GASTEIGER

@<TRIPOS>ATOM
      1 O           4.5981   -0.1701    0.0000 O.3     1  UNL1       -0.5031
      2 O           2.8660    0.8299    0.0000 O.3     1  UNL1       -0.4914
      3 O           9.7872   -2.2446    0.0000 O.3     1  UNL1       -0.5068
      4 N           7.2641    1.3091    0.0000 N.3     1  UNL1       -0.2977
      5 C           6.3580    0.7952    0.0000 C.3     1  UNL1        0.0431
      6 C           5.4641    1.3299    0.0000 C.ar    1  UNL1        0.0183
      7 C           7.2641    2.3507    0.0000 C.3     1  UNL1        0.0032
      8 C           6.3580    2.8646    0.0000 C.3     1  UNL1       -0.0144
      9 C           5.4641    2.3299    0.0000 C.ar    1  UNL1       -0.0378
     10 C           6.3465   -0.2047    0.0000 C.3     1  UNL1       -0.0078
     11 C           4.5981    0.8299    0.0000 C.ar    1  UNL1        0.1635
     12 C           8.1282    0.8058    0.0000 C.3     1  UNL1       -0.0122
     13 C           7.2067   -0.7147    0.0000 C.ar    1  UNL1       -0.0453
     14 C           4.5981    2.8299    0.0000 C.ar    1  UNL1       -0.0545
     15 C           3.7320    1.3299    0.0000 C.ar    1  UNL1        0.1616
     16 C           3.7320    2.3299    0.0000 C.ar    1  UNL1       -0.0160
     17 C           7.1951   -1.7146    0.0000 C.ar    1  UNL1       -0.0551
     18 C           8.0784   -0.2247    0.0000 C.ar    1  UNL1       -0.0551
     19 C           8.0553   -2.2246    0.0000 C.ar    1  UNL1       -0.0199
     20 C           8.9386   -0.7347    0.0000 C.ar    1  UNL1       -0.0199
     21 C           8.9270   -1.7346    0.0000 C.ar    1  UNL1        0.1169
     22 C           2.0000    1.3299    0.0000 C.3     1  UNL1        0.0790
     23 H           6.8920    0.4801    0.0000 H       1  UNL1        0.0516
     24 H           7.8750    2.2446    0.0000 H       1  UNL1        0.0430
     25 H           7.4732    2.9344    0.0000 H       1  UNL1        0.0430
     26 H           6.7517    3.3436    0.0000 H       1  UNL1        0.0326
     27 H           5.9534    3.3344    0.0000 H       1  UNL1        0.0326
     28 H           5.7372   -0.0900    0.0000 H       1  UNL1        0.0332
     29 H           6.1277   -0.7848    0.0000 H       1  UNL1        0.0332
     30 H           7.8161    0.2700    0.0000 H       1  UNL1        0.0391
     31 H           8.6639    0.4937    0.0000 H       1  UNL1        0.0391
     32 H           8.4403    1.3415    0.0000 H       1  UNL1        0.0391
     33 H           4.5981    3.4499    0.0000 H       1  UNL1        0.0622
     34 H           3.1951    2.6399    0.0000 H       1  UNL1        0.0655
     35 H           6.6546   -2.0184    0.0000 H       1  UNL1        0.0621
     36 H           8.0856    0.3952    0.0000 H       1  UNL1        0.0621
     37 H           4.0611   -0.4801    0.0000 H       1  UNL1        0.2923
     38 H           8.0481   -2.8445    0.0000 H       1  UNL1        0.0654
     39 H           9.4791   -0.4309    0.0000 H       1  UNL1        0.0654
     40 H           2.3100    1.8668    0.0000 H       1  UNL1        0.0660
     41 H           1.4631    1.6399    0.0000 H       1  UNL1        0.0660
     42 H           1.6900    0.7930    0.0000 H       1  UNL1        0.0660
     43 H           9.7800   -2.8646    0.0000 H       1  UNL1        0.2921
@<TRIPOS>BOND
     1     1    11    1
     2     1    37    1
     3     2    15    1
     4     2    22    1
     5     3    21    1
     6     3    43    1
     7     4     5    1
     8     4     7    1
     9     4    12    1
    10     5     6    1
    11     5    10    1
    12     5    23    1
    13     6     9   ar
    14     6    11   ar
    15     7     8    1
    16     7    24    1
    17     7    25    1
    18     8     9    1
    19     8    26    1
    20     8    27    1
    21     9    14   ar
    22    10    13    1
    23    10    28    1
    24    10    29    1
    25    11    15   ar
    26    12    30    1
    27    12    31    1
    28    12    32    1
    29    13    17   ar
    30    13    18   ar
    31    14    16   ar
    32    14    33    1
    33    15    16   ar
    34    16    34    1
    35    17    19   ar
    36    17    35    1
    37    18    20   ar
    38    18    36    1
    39    19    21   ar
    40    19    38    1
    41    20    21   ar
    42    20    39    1
    43    22    40    1
    44    22    41    1
    45    22    42    1
