@<TRIPOS>MOLECULE
IMPHY007417
 14 13 0 0 0
SMALL
GASTEIGER

@<TRIPOS>ATOM
      1 O           3.7320    0.7500    0.0000 O.3     1  UNL1       -0.4651
      2 O           2.8660   -0.7500    0.0000 O.2     1  UNL1       -0.2512
      3 C           4.5981    0.2500    0.0000 C.3     1  UNL1        0.0896
      4 C           5.4641    0.7500    0.0000 C.3     1  UNL1       -0.0306
      5 C           2.8660    0.2500    0.0000 C.2     1  UNL1        0.3039
      6 C           2.0000    0.7500    0.0000 C.3     1  UNL1        0.0332
      7 H           4.1996   -0.2249    0.0000 H       1  UNL1        0.0694
      8 H           4.9966   -0.2249    0.0000 H       1  UNL1        0.0694
      9 H           5.7741    0.2131    0.0000 H       1  UNL1        0.0262
     10 H           6.0010    1.0600    0.0000 H       1  UNL1        0.0262
     11 H           5.1541    1.2869    0.0000 H       1  UNL1        0.0262
     12 H           2.3100    1.2869    0.0000 H       1  UNL1        0.0342
     13 H           1.4631    1.0600    0.0000 H       1  UNL1        0.0342
     14 H           1.6900    0.2131    0.0000 H       1  UNL1        0.0342
@<TRIPOS>BOND
     1     1     3    1
     2     1     5    1
     3     2     5    2
     4     3     4    1
     5     3     7    1
     6     3     8    1
     7     4     9    1
     8     4    10    1
     9     4    11    1
    10     5     6    1
    11     6    12    1
    12     6    13    1
    13     6    14    1
