@<TRIPOS>MOLECULE
IMPHY006352
 27 27 0 0 0
SMALL
GASTEIGER

@<TRIPOS>ATOM
      1 O           4.5981   -0.7500    0.0000 O.3     1  UNL1       -0.3682
      2 C           3.7320   -0.2500    0.0000 C.3     1  UNL1        0.0811
      3 C           3.7320    0.7500    0.0000 C.3     1  UNL1       -0.0019
      4 C           4.5981    1.2500    0.0000 C.2     1  UNL1       -0.0716
      5 C           5.4641   -0.2500    0.0000 C.3     1  UNL1        0.0669
      6 C           2.8660   -0.7500    0.0000 C.2     1  UNL1       -0.0566
      7 C           5.4641    0.7500    0.0000 C.2     1  UNL1       -0.0596
      8 C           2.8660   -1.7500    0.0000 C.2     1  UNL1       -0.0772
      9 C           4.5981    2.2500    0.0000 C.3     1  UNL1       -0.0436
     10 C           2.0000   -2.2500    0.0000 C.3     1  UNL1       -0.0440
     11 C           3.7320   -2.2500    0.0000 C.3     1  UNL1       -0.0440
     12 H           3.7320   -1.1000    0.0000 H       1  UNL1        0.0644
     13 H           3.5200    1.3326    0.0000 H       1  UNL1        0.0338
     14 H           3.1215    0.6423    0.0000 H       1  UNL1        0.0338
     15 H           2.3291   -0.4400    0.0000 H       1  UNL1        0.0597
     16 H           5.6762   -0.8326    0.0000 H       1  UNL1        0.0604
     17 H           6.0747   -0.1423    0.0000 H       1  UNL1        0.0604
     18 H           6.0010    1.0600    0.0000 H       1  UNL1        0.0594
     19 H           5.2181    2.2500    0.0000 H       1  UNL1        0.0274
     20 H           4.5981    2.8700    0.0000 H       1  UNL1        0.0274
     21 H           3.9781    2.2500    0.0000 H       1  UNL1        0.0274
     22 H           1.6900   -1.7131    0.0000 H       1  UNL1        0.0274
     23 H           1.4631   -2.5600    0.0000 H       1  UNL1        0.0274
     24 H           2.3100   -2.7869    0.0000 H       1  UNL1        0.0274
     25 H           3.4220   -2.7869    0.0000 H       1  UNL1        0.0274
     26 H           4.2690   -2.5600    0.0000 H       1  UNL1        0.0274
     27 H           4.0420   -1.7131    0.0000 H       1  UNL1        0.0274
@<TRIPOS>BOND
     1     1     2    1
     2     1     5    1
     3     2     3    1
     4     2     6    1
     5     2    12    1
     6     3     4    1
     7     3    13    1
     8     3    14    1
     9     4     7    2
    10     4     9    1
    11     5     7    1
    12     5    16    1
    13     5    17    1
    14     6     8    2
    15     6    15    1
    16     7    18    1
    17     8    10    1
    18     8    11    1
    19     9    19    1
    20     9    20    1
    21     9    21    1
    22    10    22    1
    23    10    23    1
    24    10    24    1
    25    11    25    1
    26    11    26    1
    27    11    27    1
