@<TRIPOS>MOLECULE
IMPHY005257
 15 15 0 0 0
SMALL
GASTEIGER

@<TRIPOS>ATOM
      1 O           2.8090   -0.4197    0.0000 O.2     1  UNL1       -0.4678
      2 C           4.5691   -0.1410    0.0000 C.3     1  UNL1        0.0027
      3 C           3.6180    0.1681    0.0000 C.ar    1  UNL1        0.1046
      4 C           4.7770   -1.1191    0.0000 C.3     1  UNL1       -0.0584
      5 C           3.3090    1.1191    0.0000 C.ar    1  UNL1       -0.0207
      6 C           2.3090    1.1191    0.0000 C.ar    1  UNL1       -0.0237
      7 C           2.0000    0.1681    0.0000 C.ar    1  UNL1        0.0921
      8 H           5.1887   -0.1193    0.0000 H       1  UNL1        0.0341
      9 H           4.6554    0.4730    0.0000 H       1  UNL1        0.0341
     10 H           4.1706   -1.2480    0.0000 H       1  UNL1        0.0234
     11 H           4.9059   -1.7256    0.0000 H       1  UNL1        0.0234
     12 H           5.3834   -0.9902    0.0000 H       1  UNL1        0.0234
     13 H           3.6734    1.6207    0.0000 H       1  UNL1        0.0652
     14 H           1.9446    1.6207    0.0000 H       1  UNL1        0.0649
     15 H           1.4103   -0.0235    0.0000 H       1  UNL1        0.1029
@<TRIPOS>BOND
     1     1     3   ar
     2     1     7   ar
     3     2     3    1
     4     2     4    1
     5     2     8    1
     6     2     9    1
     7     3     5   ar
     8     4    10    1
     9     4    11    1
    10     4    12    1
    11     5     6   ar
    12     5    13    1
    13     6     7   ar
    14     6    14    1
    15     7    15    1
