@<TRIPOS>MOLECULE
IMPHY012424
 46 50 0 0 0
SMALL
GASTEIGER

@<TRIPOS>ATOM
      1 O           2.8522    0.1467    0.0000 O.2     1  UNL1       -0.4179
      2 O           3.0332    3.3622    0.0000 O.3     1  UNL1       -0.4517
      3 O           4.4270    4.1670    0.0000 O.3     1  UNL1       -0.4526
      4 O           2.9291   -1.9404    0.0000 O.3     1  UNL1       -0.4914
      5 O           2.0000    1.6983    0.0000 O.2     1  UNL1       -0.2444
      6 N           7.3985   -3.2710    0.0000 N.3     1  UNL1       -0.3080
      7 C           4.6523    0.1537    0.0000 C.ar    1  UNL1        0.0370
      8 C           4.6362    1.1952    0.0000 C.ar    1  UNL1        0.0112
      9 C           5.5294   -0.3091    0.0000 C.ar    1  UNL1       -0.0103
     10 C           5.5796   -1.3497    0.0000 C.ar    1  UNL1       -0.0347
     11 C           5.5022    1.6952    0.0000 C.ar    1  UNL1       -0.0127
     12 C           3.7702    1.6952    0.0000 C.ar    1  UNL1        0.1131
     13 C           3.7542   -0.3741    0.0000 C.ar    1  UNL1        0.1816
     14 C           6.4669   -1.8108    0.0000 C.3     1  UNL1       -0.0142
     15 C           6.3751    0.2088    0.0000 C.ar    1  UNL1       -0.0531
     16 C           3.7702    2.6952    0.0000 C.ar    1  UNL1        0.1808
     17 C           3.7803   -1.4156    0.0000 C.ar    1  UNL1        0.1631
     18 C           4.6991   -1.9067    0.0000 C.ar    1  UNL1       -0.0125
     19 C           6.3617    1.2004    0.0000 C.ar    1  UNL1       -0.0533
     20 C           5.5022    2.6952    0.0000 C.ar    1  UNL1       -0.0084
     21 C           4.6362    3.1952    0.0000 C.ar    1  UNL1        0.1677
     22 C           6.5112   -2.8099    0.0000 C.3     1  UNL1        0.0023
     23 C           2.8602    1.1883    0.0000 C.ar    1  UNL1        0.3489
     24 C           3.4383    4.2700    0.0000 C.3     1  UNL1        0.2333
     25 C           7.4428   -4.2700    0.0000 C.3     1  UNL1       -0.0130
     26 C           8.2415   -2.7332    0.0000 C.3     1  UNL1       -0.0130
     27 C           2.9580   -2.9400    0.0000 C.3     1  UNL1        0.0790
     28 H           7.0816   -1.8914    0.0000 H       1  UNL1        0.0326
     29 H           6.6529   -1.2194    0.0000 H       1  UNL1        0.0326
     30 H           6.9181   -0.0906    0.0000 H       1  UNL1        0.0624
     31 H           4.7218   -2.5262    0.0000 H       1  UNL1        0.0658
     32 H           6.8963    1.5144    0.0000 H       1  UNL1        0.0624
     33 H           6.0392    3.0052    0.0000 H       1  UNL1        0.0661
     34 H           5.8964   -2.7294    0.0000 H       1  UNL1        0.0429
     35 H           6.3251   -3.4013    0.0000 H       1  UNL1        0.0429
     36 H           3.5670    4.8765    0.0000 H       1  UNL1        0.1166
     37 H           2.8487    4.4618    0.0000 H       1  UNL1        0.1166
     38 H           6.8234   -4.2975    0.0000 H       1  UNL1        0.0391
     39 H           7.4702   -4.8894    0.0000 H       1  UNL1        0.0391
     40 H           8.0622   -4.2426    0.0000 H       1  UNL1        0.0391
     41 H           8.5750   -3.2558    0.0000 H       1  UNL1        0.0391
     42 H           8.7642   -2.3997    0.0000 H       1  UNL1        0.0391
     43 H           7.9080   -2.2105    0.0000 H       1  UNL1        0.0391
     44 H           2.3382   -2.9579    0.0000 H       1  UNL1        0.0660
     45 H           2.9759   -3.5597    0.0000 H       1  UNL1        0.0660
     46 H           3.5777   -2.9221    0.0000 H       1  UNL1        0.0660
@<TRIPOS>BOND
     1     1    13   ar
     2     1    23   ar
     3     2    16    1
     4     2    24    1
     5     3    21    1
     6     3    24    1
     7     4    17    1
     8     4    27    1
     9     5    23    2
    10     6    22    1
    11     6    25    1
    12     6    26    1
    13     7     8   ar
    14     7     9   ar
    15     7    13   ar
    16     8    11   ar
    17     8    12   ar
    18     9    10   ar
    19     9    15   ar
    20    10    14    1
    21    10    18   ar
    22    11    19   ar
    23    11    20   ar
    24    12    16   ar
    25    12    23   ar
    26    13    17   ar
    27    14    22    1
    28    14    28    1
    29    14    29    1
    30    15    19   ar
    31    15    30    1
    32    16    21   ar
    33    17    18   ar
    34    18    31    1
    35    19    32    1
    36    20    21   ar
    37    20    33    1
    38    22    34    1
    39    22    35    1
    40    24    36    1
    41    24    37    1
    42    25    38    1
    43    25    39    1
    44    25    40    1
    45    26    41    1
    46    26    42    1
    47    26    43    1
    48    27    44    1
    49    27    45    1
    50    27    46    1
