@<TRIPOS>MOLECULE
IMPHY009535
 154 163 0 0 0
SMALL
GASTEIGER

@<TRIPOS>ATOM
      1 O          14.3523    5.5403    0.0000 O.3     1  UNL1       -0.3448
      2 O          12.5799    6.4351    0.0000 O.3     1  UNL1       -0.3480
      3 O          12.9292   -2.7038    0.0000 O.3     1  UNL1       -0.3454
      4 O          11.1972   -2.7038    0.0000 O.3     1  UNL1       -0.3405
      5 O          12.9292   -4.7038    0.0000 O.3     1  UNL1       -0.3841
      6 O          11.1972   -5.7038    0.0000 O.3     1  UNL1       -0.3400
      7 O           9.4651   -4.7038    0.0000 O.3     1  UNL1       -0.3401
      8 O           9.4651   -1.7038    0.0000 O.3     1  UNL1       -0.3924
      9 O          12.9292   -5.7038    0.0000 O.3     1  UNL1       -0.3405
     10 O           8.5991   -3.2038    0.0000 O.3     1  UNL1       -0.3405
     11 O          11.1972   -7.7038    0.0000 O.3     1  UNL1       -0.3841
     12 O           7.7331   -5.7038    0.0000 O.3     1  UNL1       -0.3841
     13 O          12.9292   -8.7038    0.0000 O.3     1  UNL1       -0.3864
     14 O           6.0010   -4.7038    0.0000 O.3     1  UNL1       -0.3864
     15 O          14.6613   -7.7038    0.0000 O.3     1  UNL1       -0.3865
     16 O           6.0010   -2.7038    0.0000 O.3     1  UNL1       -0.3402
     17 O          14.6613   -4.7038    0.0000 O.3     1  UNL1       -0.3924
     18 O           6.8671   -1.2038    0.0000 O.3     1  UNL1       -0.3924
     19 O           5.1350   -4.2038    0.0000 O.3     1  UNL1       -0.3461
     20 O           4.2690   -1.7038    0.0000 O.3     1  UNL1       -0.3841
     21 O           2.5369   -2.7038    0.0000 O.3     1  UNL1       -0.3864
     22 O           2.5369   -4.7038    0.0000 O.3     1  UNL1       -0.3869
     23 C          12.9585    3.4931    0.0000 C.3     1  UNL1       -0.0233
     24 C          13.8264    2.9965    0.0000 C.3     1  UNL1       -0.0298
     25 C          13.8303    1.9965    0.0000 C.3     1  UNL1       -0.0343
     26 C          13.1640    4.4657    0.0000 C.3     1  UNL1       -0.0015
     27 C          12.9662    1.4931    0.0000 C.3     1  UNL1       -0.0323
     28 C          14.1523    4.5726    0.0000 C.3     1  UNL1        0.0660
     29 C          12.9542    0.4516    0.0000 C.3     1  UNL1       -0.0260
     30 C          14.5609    3.6664    0.0000 C.3     1  UNL1       -0.0226
     31 C          12.0944    2.9898    0.0000 C.3     1  UNL1       -0.0467
     32 C          12.0983    1.9898    0.0000 C.3     1  UNL1       -0.0489
     33 C          12.7617    5.3683    0.0000 C.3     1  UNL1        0.0160
     34 C          13.8542   -0.0727    0.0000 C.3     1  UNL1       -0.0330
     35 C          14.7422    1.4931    0.0000 C.3     1  UNL1       -0.0494
     36 C          13.4946    6.0311    0.0000 C.3     1  UNL1        0.1732
     37 C          14.7543    0.4516    0.0000 C.3     1  UNL1       -0.0494
     38 C          12.0906    3.9898    0.0000 C.3     1  UNL1       -0.0590
     39 C          12.0043   -0.0727    0.0000 C.3     1  UNL1       -0.0448
     40 C          13.8668   -1.1576    0.0000 C.3     1  UNL1       -0.0232
     41 C          12.0901    0.9549    0.0000 C.3     1  UNL1       -0.0590
     42 C          11.9917   -1.1576    0.0000 C.3     1  UNL1       -0.0260
     43 C          11.7833    5.5750    0.0000 C.3     1  UNL1       -0.0572
     44 C          12.9292   -1.7038    0.0000 C.3     1  UNL1        0.0621
     45 C          14.3019    6.6213    0.0000 C.3     1  UNL1        0.0020
     46 C          14.1944    7.6155    0.0000 C.3     1  UNL1       -0.0435
     47 C          12.4724    7.4293    0.0000 C.3     1  UNL1        0.0535
     48 C          13.2796    8.0195    0.0000 C.3     1  UNL1       -0.0201
     49 C          13.1721    9.0138    0.0000 C.3     1  UNL1       -0.0603
     50 C          12.0632   -3.2038    0.0000 C.3     1  UNL1        0.1882
     51 C          12.0632   -4.2038    0.0000 C.3     1  UNL1        0.1345
     52 C          11.1972   -4.7038    0.0000 C.3     1  UNL1        0.1209
     53 C          10.3312   -3.2038    0.0000 C.3     1  UNL1        0.1134
     54 C          10.3312   -4.2038    0.0000 C.3     1  UNL1        0.1188
     55 C           9.4651   -2.7038    0.0000 C.3     1  UNL1        0.0730
     56 C          12.0632   -6.2038    0.0000 C.3     1  UNL1        0.1884
     57 C           8.5991   -4.2038    0.0000 C.3     1  UNL1        0.1884
     58 C          12.0632   -7.2038    0.0000 C.3     1  UNL1        0.1341
     59 C           7.7331   -4.7038    0.0000 C.3     1  UNL1        0.1341
     60 C          12.9292   -7.7038    0.0000 C.3     1  UNL1        0.1141
     61 C          13.7953   -6.2038    0.0000 C.3     1  UNL1        0.1130
     62 C           6.8671   -4.2038    0.0000 C.3     1  UNL1        0.1144
     63 C          13.7953   -7.2038    0.0000 C.3     1  UNL1        0.1119
     64 C           7.7331   -2.7038    0.0000 C.3     1  UNL1        0.1134
     65 C           6.8671   -3.2038    0.0000 C.3     1  UNL1        0.1184
     66 C          14.6613   -5.7038    0.0000 C.3     1  UNL1        0.0730
     67 C           7.7331   -1.7038    0.0000 C.3     1  UNL1        0.0730
     68 C           5.1350   -3.2038    0.0000 C.3     1  UNL1        0.1880
     69 C           4.2690   -2.7038    0.0000 C.3     1  UNL1        0.1341
     70 C           3.4030   -3.2038    0.0000 C.3     1  UNL1        0.1137
     71 C           4.2690   -4.7038    0.0000 C.3     1  UNL1        0.0792
     72 C           3.4030   -4.2038    0.0000 C.3     1  UNL1        0.1069
     73 H          14.6047    2.6548    0.0000 H       1  UNL1        0.0310
     74 H          14.5615    2.4300    0.0000 H       1  UNL1        0.0306
     75 H          12.3187    4.3762    0.0000 H       1  UNL1        0.0335
     76 H          13.7007    1.0653    0.0000 H       1  UNL1        0.0309
     77 H          14.9972    4.6658    0.0000 H       1  UNL1        0.0600
     78 H          14.9283    3.1670    0.0000 H       1  UNL1        0.0293
     79 H          15.0962    3.9792    0.0000 H       1  UNL1        0.0293
     80 H          11.8801    3.5716    0.0000 H       1  UNL1        0.0271
     81 H          11.4842    2.8798    0.0000 H       1  UNL1        0.0271
     82 H          11.4873    2.0951    0.0000 H       1  UNL1        0.0268
     83 H          11.8885    1.4064    0.0000 H       1  UNL1        0.0268
     84 H          12.3719    4.8862    0.0000 H       1  UNL1        0.0354
     85 H          14.5936   -0.4920    0.0000 H       1  UNL1        0.0307
     86 H          15.3543    1.3941    0.0000 H       1  UNL1        0.0268
     87 H          14.9445    2.0792    0.0000 H       1  UNL1        0.0268
     88 H          14.9701   -0.1297    0.0000 H       1  UNL1        0.0268
     89 H          15.3639    0.5647    0.0000 H       1  UNL1        0.0268
     90 H          12.3985    4.5279    0.0000 H       1  UNL1        0.0235
     91 H          11.5524    4.2977    0.0000 H       1  UNL1        0.0235
     92 H          11.7826    3.4517    0.0000 H       1  UNL1        0.0235
     93 H          11.8020    0.5134    0.0000 H       1  UNL1        0.0271
     94 H          11.3922   -0.1717    0.0000 H       1  UNL1        0.0271
     95 H          14.0826   -1.7389    0.0000 H       1  UNL1        0.0293
     96 H          14.4764   -1.0445    0.0000 H       1  UNL1        0.0293
     97 H          12.4021    1.4906    0.0000 H       1  UNL1        0.0235
     98 H          11.5543    1.2670    0.0000 H       1  UNL1        0.0235
     99 H          11.7780    0.4192    0.0000 H       1  UNL1        0.0235
    100 H          11.3821   -1.0445    0.0000 H       1  UNL1        0.0290
    101 H          11.7759   -1.7389    0.0000 H       1  UNL1        0.0290
    102 H          11.9114    6.1816    0.0000 H       1  UNL1        0.0234
    103 H          11.1766    5.7032    0.0000 H       1  UNL1        0.0234
    104 H          11.6551    4.9684    0.0000 H       1  UNL1        0.0234
    105 H          12.3917   -2.0127    0.0000 H       1  UNL1        0.0597
    106 H          14.5753    6.0649    0.0000 H       1  UNL1        0.0317
    107 H          14.8974    6.7940    0.0000 H       1  UNL1        0.0317
    108 H          14.8130    7.5741    0.0000 H       1  UNL1        0.0270
    109 H          14.3426    8.2176    0.0000 H       1  UNL1        0.0270
    110 H          12.1989    7.9858    0.0000 H       1  UNL1        0.0563
    111 H          11.8769    7.2567    0.0000 H       1  UNL1        0.0563
    112 H          13.7801    8.3855    0.0000 H       1  UNL1        0.0320
    113 H          13.7885    9.0804    0.0000 H       1  UNL1        0.0233
    114 H          13.1055    9.6302    0.0000 H       1  UNL1        0.0233
    115 H          12.5557    8.9471    0.0000 H       1  UNL1        0.0233
    116 H          12.0632   -2.5838    0.0000 H       1  UNL1        0.0937
    117 H          12.0632   -4.8238    0.0000 H       1  UNL1        0.0671
    118 H          10.6603   -5.0138    0.0000 H       1  UNL1        0.0651
    119 H          10.3312   -2.5838    0.0000 H       1  UNL1        0.0647
    120 H           9.7942   -3.8938    0.0000 H       1  UNL1        0.0651
    121 H          13.4662   -4.3938    0.0000 H       1  UNL1        0.2101
    122 H           8.8546   -2.5961    0.0000 H       1  UNL1        0.0584
    123 H           9.2531   -3.2864    0.0000 H       1  UNL1        0.0584
    124 H          11.5263   -6.5138    0.0000 H       1  UNL1        0.0938
    125 H           8.5991   -4.8238    0.0000 H       1  UNL1        0.0938
    126 H           8.9282   -1.3938    0.0000 H       1  UNL1        0.2095
    127 H          13.0110   -7.5138    0.0000 H       1  UNL1        0.0671
    128 H           7.1962   -5.0138    0.0000 H       1  UNL1        0.0671
    129 H          12.3923   -8.0138    0.0000 H       1  UNL1        0.0648
    130 H          13.7953   -5.5838    0.0000 H       1  UNL1        0.0647
    131 H           7.4040   -4.5138    0.0000 H       1  UNL1        0.0648
    132 H          14.3322   -6.8938    0.0000 H       1  UNL1        0.0647
    133 H           8.2700   -2.3938    0.0000 H       1  UNL1        0.0647
    134 H           6.3301   -3.5138    0.0000 H       1  UNL1        0.0651
    135 H          10.6603   -7.3938    0.0000 H       1  UNL1        0.2101
    136 H           7.1962   -6.0138    0.0000 H       1  UNL1        0.2101
    137 H          14.8733   -6.2864    0.0000 H       1  UNL1        0.0584
    138 H          15.2719   -5.5961    0.0000 H       1  UNL1        0.0584
    139 H           8.3437   -1.8114    0.0000 H       1  UNL1        0.0584
    140 H           7.9451   -1.1211    0.0000 H       1  UNL1        0.0584
    141 H          13.4662   -9.0138    0.0000 H       1  UNL1        0.2100
    142 H           6.0010   -5.3238    0.0000 H       1  UNL1        0.2100
    143 H          15.1982   -7.3938    0.0000 H       1  UNL1        0.2100
    144 H           5.1350   -2.5838    0.0000 H       1  UNL1        0.0937
    145 H          15.1982   -4.3938    0.0000 H       1  UNL1        0.2095
    146 H           6.8671   -0.5837    0.0000 H       1  UNL1        0.2095
    147 H           3.7320   -2.3938    0.0000 H       1  UNL1        0.0671
    148 H           3.9650   -2.5838    0.0000 H       1  UNL1        0.0647
    149 H           3.8705   -5.1787    0.0000 H       1  UNL1        0.0587
    150 H           4.6675   -5.1787    0.0000 H       1  UNL1        0.0587
    151 H           3.4030   -4.8238    0.0000 H       1  UNL1        0.0643
    152 H           3.7320   -1.3938    0.0000 H       1  UNL1        0.2101
    153 H           2.0000   -3.0138    0.0000 H       1  UNL1        0.2100
    154 H           2.5369   -5.3238    0.0000 H       1  UNL1        0.2100
@<TRIPOS>BOND
     1     1    28    1
     2    36     1    1
     3     2    36    1
     4     2    47    1
     5    44     3    1
     6    50     3    1
     7     4    50    1
     8     4    53    1
     9    51     5    1
    10     5   121    1
    11    52     6    1
    12    56     6    1
    13    54     7    1
    14    57     7    1
    15     8    55    1
    16     8   126    1
    17     9    56    1
    18     9    61    1
    19    10    57    1
    20    10    64    1
    21    58    11    1
    22    11   135    1
    23    59    12    1
    24    12   136    1
    25    60    13    1
    26    13   141    1
    27    62    14    1
    28    14   142    1
    29    63    15    1
    30    15   143    1
    31    65    16    1
    32    68    16    1
    33    17    66    1
    34    17   145    1
    35    18    67    1
    36    18   146    1
    37    19    68    1
    38    19    71    1
    39    69    20    1
    40    20   152    1
    41    70    21    1
    42    21   153    1
    43    72    22    1
    44    22   154    1
    45    23    24    1
    46    23    26    1
    47    23    31    1
    48    23    38    1
    49    24    25    1
    50    24    30    1
    51    24    73    1
    52    25    27    1
    53    25    35    1
    54    25    74    1
    55    26    28    1
    56    26    33    1
    57    26    75    1
    58    27    29    1
    59    27    32    1
    60    27    76    1
    61    28    30    1
    62    28    77    1
    63    29    34    1
    64    29    39    1
    65    29    41    1
    66    30    78    1
    67    30    79    1
    68    31    32    1
    69    31    80    1
    70    31    81    1
    71    32    82    1
    72    32    83    1
    73    33    36    1
    74    33    43    1
    75    33    84    1
    76    34    37    1
    77    34    40    1
    78    34    85    1
    79    35    37    1
    80    35    86    1
    81    35    87    1
    82    36    45    1
    83    37    88    1
    84    37    89    1
    85    38    90    1
    86    38    91    1
    87    38    92    1
    88    39    42    1
    89    39    93    1
    90    39    94    1
    91    40    44    1
    92    40    95    1
    93    40    96    1
    94    41    97    1
    95    41    98    1
    96    41    99    1
    97    42    44    1
    98    42   100    1
    99    42   101    1
   100    43   102    1
   101    43   103    1
   102    43   104    1
   103    44   105    1
   104    45    46    1
   105    45   106    1
   106    45   107    1
   107    46    48    1
   108    46   108    1
   109    46   109    1
   110    47    48    1
   111    47   110    1
   112    47   111    1
   113    48    49    1
   114    48   112    1
   115    49   113    1
   116    49   114    1
   117    49   115    1
   118    50    51    1
   119    50   116    1
   120    51    52    1
   121    51   117    1
   122    52    54    1
   123    52   118    1
   124    53    54    1
   125    53    55    1
   126    53   119    1
   127    54   120    1
   128    55   122    1
   129    55   123    1
   130    56    58    1
   131    56   124    1
   132    57    59    1
   133    57   125    1
   134    58    60    1
   135    58   127    1
   136    59    62    1
   137    59   128    1
   138    60    63    1
   139    60   129    1
   140    61    63    1
   141    61    66    1
   142    61   130    1
   143    62    65    1
   144    62   131    1
   145    63   132    1
   146    64    65    1
   147    64    67    1
   148    64   133    1
   149    65   134    1
   150    66   137    1
   151    66   138    1
   152    67   139    1
   153    67   140    1
   154    68    69    1
   155    68   144    1
   156    69    70    1
   157    69   147    1
   158    70    72    1
   159    70   148    1
   160    71    72    1
   161    71   149    1
   162    71   150    1
   163    72   151    1
