@<TRIPOS>MOLECULE
IMPHY003985
 38 39 0 0 0
SMALL
GASTEIGER

@<TRIPOS>ATOM
      1 O           6.4453   -3.4211    0.0000 O.2     1  UNL1       -0.2961
      2 C           3.7147    1.4726    0.0000 C.3     1  UNL1       -0.0314
      3 C           5.1137    0.9637    0.0000 C.3     1  UNL1       -0.0079
      4 C           3.9735    2.4385    0.0000 C.3     1  UNL1       -0.0193
      5 C           3.2369    3.4211    0.0000 C.3     1  UNL1       -0.0429
      6 C           2.3420    0.8805    0.0000 C.3     1  UNL1       -0.0489
      7 C           5.3725    1.9297    0.0000 C.2     1  UNL1       -0.0673
      8 C           2.0000    1.8202    0.0000 C.3     1  UNL1       -0.0462
      9 C           6.0272    0.5570    0.0000 C.3     1  UNL1       -0.0402
     10 C           5.0091   -0.0308    0.0000 C.3     1  UNL1       -0.0556
     11 C           6.2385    2.4297    0.0000 C.2     1  UNL1       -0.0987
     12 C           6.1317   -0.4375    0.0000 C.3     1  UNL1       -0.0333
     13 C           7.0453   -0.8443    0.0000 C.2     1  UNL1       -0.0780
     14 C           7.1498   -1.8388    0.0000 C.2     1  UNL1       -0.0152
     15 C           8.0634   -2.2455    0.0000 C.3     1  UNL1       -0.0370
     16 C           6.3408   -2.4266    0.0000 C.2     1  UNL1        0.1457
     17 H           3.7328    0.8528    0.0000 H       1  UNL1        0.0309
     18 H           3.9595    1.8186    0.0000 H       1  UNL1        0.0346
     19 H           3.5547    3.9534    0.0000 H       1  UNL1        0.0274
     20 H           2.6238    3.5130    0.0000 H       1  UNL1        0.0274
     21 H           1.7636    0.6572    0.0000 H       1  UNL1        0.0268
     22 H           2.5765    0.3066    0.0000 H       1  UNL1        0.0268
     23 H           1.8057    2.4090    0.0000 H       1  UNL1        0.0271
     24 H           1.4142    1.6170    0.0000 H       1  UNL1        0.0271
     25 H           6.6457    0.5137    0.0000 H       1  UNL1        0.0277
     26 H           6.1772    1.1586    0.0000 H       1  UNL1        0.0277
     27 H           4.3925    0.0340    0.0000 H       1  UNL1        0.0238
     28 H           4.9443   -0.6474    0.0000 H       1  UNL1        0.0238
     29 H           5.6257   -0.0956    0.0000 H       1  UNL1        0.0238
     30 H           6.7754    2.1197    0.0000 H       1  UNL1        0.0535
     31 H           6.2385    3.0497    0.0000 H       1  UNL1        0.0535
     32 H           5.5132   -0.3943    0.0000 H       1  UNL1        0.0308
     33 H           5.9818   -1.0391    0.0000 H       1  UNL1        0.0308
     34 H           7.5469   -0.4798    0.0000 H       1  UNL1        0.0576
     35 H           7.8112   -2.8119    0.0000 H       1  UNL1        0.0278
     36 H           8.6298   -2.4977    0.0000 H       1  UNL1        0.0278
     37 H           8.3155   -1.6791    0.0000 H       1  UNL1        0.0278
     38 H           5.7744   -2.1744    0.0000 H       1  UNL1        0.1078
@<TRIPOS>BOND
     1     1    16    2
     2     2     3    1
     3     2     5    1
     4     2     6    1
     5     2    17    1
     6     3     7    1
     7     3     9    1
     8     3    10    1
     9     4     5    1
    10     4     7    1
    11     4     8    1
    12     4    18    1
    13     5    19    1
    14     5    20    1
    15     6     8    1
    16     6    21    1
    17     6    22    1
    18     7    11    2
    19     8    23    1
    20     8    24    1
    21     9    12    1
    22     9    25    1
    23     9    26    1
    24    10    27    1
    25    10    28    1
    26    10    29    1
    27    11    30    1
    28    11    31    1
    29    12    13    1
    30    12    32    1
    31    12    33    1
    32    13    14    2
    33    13    34    1
    34    14    15    1
    35    14    16    1
    36    15    35    1
    37    15    36    1
    38    15    37    1
    39    16    38    1
