@<TRIPOS>MOLECULE
IMPHY010762
 75 83 0 0 0
SMALL
GASTEIGER

@<TRIPOS>ATOM
      1 O           6.3282   -2.0013    0.0000 O.3     1  UNL1       -0.3311
      2 O          15.3291    1.1037    0.0000 O.3     1  UNL1       -0.3284
      3 O          15.3291    3.1954    0.0000 O.3     1  UNL1       -0.2205
      4 O           8.1424   -3.7792    0.0000 O.3     1  UNL1       -0.2203
      5 O           4.5961   -1.9947    0.0000 O.3     1  UNL1       -0.3170
      6 O          16.2009    2.6004    0.0000 O.3     1  UNL1       -0.3257
      7 O           6.3359   -0.0014    0.0000 O.3     1  UNL1       -0.3231
      8 O          17.0573    0.0970    0.0000 O.3     1  UNL1       -0.2150
      9 O           4.6077    1.0053    0.0000 O.3     1  UNL1       -0.2175
     10 O          18.7932    1.0904    0.0000 O.3     1  UNL1       -0.3255
     11 O           2.8718    0.0120    0.0000 O.3     1  UNL1       -0.2171
     12 O          18.8009    3.0903    0.0000 O.3     1  UNL1       -0.2177
     13 O           5.4756    1.5020    0.0000 O.3     1  UNL1       -0.3256
     14 O           2.8602   -2.9880    0.0000 O.co2   1  UNL1       -0.2429
     15 O           2.0000   -1.4847    0.0000 O.co2   1  UNL1       -0.2429
     16 O          19.6650    2.5870    0.0000 O.3     1  UNL1       -0.3257
     17 O           8.0718    0.9920    0.0000 O.3     1  UNL1       -0.2149
     18 O           8.0795    2.9919    0.0000 O.3     1  UNL1       -0.2174
     19 O          20.5214    0.0837    0.0000 O.3     1  UNL1       -0.2149
     20 O           6.3513    3.9986    0.0000 O.3     1  UNL1       -0.2176
     21 O          22.2573    1.0770    0.0000 O.3     1  UNL1       -0.2174
     22 O           4.6193    4.0053    0.0000 O.3     1  UNL1       -0.2176
     23 O          22.2650    3.0770    0.0000 O.3     1  UNL1       -0.2176
     24 C          10.8552   -0.4490    0.0000 C.3     1  UNL1        0.0035
     25 C           9.9892    0.0510    0.0000 C.3     1  UNL1        0.0046
     26 C           9.0792   -0.4559    0.0000 C.3     1  UNL1        0.0006
     27 C          11.7213    0.0510    0.0000 C.3     1  UNL1        0.0149
     28 C           9.0712   -1.4975    0.0000 C.3     1  UNL1        0.0047
     29 C          10.8713   -1.4905    0.0000 C.3     1  UNL1        0.0003
     30 C          11.7213    1.0510    0.0000 C.2     1  UNL1       -0.0493
     31 C          12.6152    1.5856    0.0000 C.3     1  UNL1        0.0204
     32 C           9.9732   -2.0183    0.0000 C.3     1  UNL1        0.0002
     33 C           8.1357   -2.0472    0.0000 C.3     1  UNL1        0.0557
     34 C          13.5213    1.0718    0.0000 C.3     1  UNL1        0.0310
     35 C          12.6152   -0.4837    0.0000 C.3     1  UNL1        0.0038
     36 C           9.9892    1.0510    0.0000 C.3     1  UNL1        0.0254
     37 C           8.1524    0.1082    0.0000 C.3     1  UNL1        0.0025
     38 C          13.5213    0.0302    0.0000 C.3     1  UNL1        0.0030
     39 C          11.4980   -1.2151    0.0000 C.3     1  UNL1        0.0003
     40 C           7.1961   -1.5047    0.0000 C.3     1  UNL1        0.1202
     41 C          10.8552    1.5510    0.0000 C.2     1  UNL1       -0.0346
     42 C           9.0869    0.5441    0.0000 C.3     1  UNL1        0.0000
     43 C           7.2045   -0.4197    0.0000 C.3     1  UNL1        0.0297
     44 C          12.0634   -0.8887    0.0000 C.3     1  UNL1        0.0040
     45 C          12.5901    2.6703    0.0000 C.3     1  UNL1        0.0066
     46 C          14.4650    1.6070    0.0000 C.3     1  UNL1        0.1482
     47 C          13.5213    3.2273    0.0000 C.3     1  UNL1        0.0309
     48 C          14.4650    2.6920    0.0000 C.3     1  UNL1        0.1788
     49 C           7.6391   -2.9151    0.0000 C.3     1  UNL1        0.1843
     50 C           8.6391   -2.9113    0.0000 C.3     1  UNL1        0.0050
     51 C          14.3911    0.5785    0.0000 C.3     1  UNL1        0.0028
     52 C          14.0112    4.0990    0.0000 C.3     1  UNL1        0.0026
     53 C          13.0113    4.0875    0.0000 C.3     1  UNL1        0.0026
     54 C           5.4641   -1.4980    0.0000 C.3     1  UNL1        0.2666
     55 C          16.1971    1.6004    0.0000 C.3     1  UNL1        0.2693
     56 C           5.4679   -0.4980    0.0000 C.3     1  UNL1        0.2067
     57 C          17.0612    1.0970    0.0000 C.3     1  UNL1        0.2374
     58 C           4.6038    0.0053    0.0000 C.3     1  UNL1        0.2172
     59 C          17.9291    1.5937    0.0000 C.3     1  UNL1        0.1858
     60 C           3.7320   -1.4913    0.0000 C.3     1  UNL1        0.2529
     61 C           3.7359   -0.4913    0.0000 C.3     1  UNL1        0.2228
     62 C          17.0689    3.0970    0.0000 C.3     1  UNL1        0.1802
     63 C          17.9330    2.5937    0.0000 C.3     1  UNL1        0.2111
     64 C           6.3397    0.9986    0.0000 C.3     1  UNL1        0.2696
     65 C           2.8641   -1.9880    0.0000 C.2     1  UNL1        0.3941
     66 C           7.2077    1.4953    0.0000 C.3     1  UNL1        0.2406
     67 C          19.6612    1.5870    0.0000 C.3     1  UNL1        0.2695
     68 C           7.2115    2.4953    0.0000 C.3     1  UNL1        0.2198
     69 C           5.4795    2.5020    0.0000 C.3     1  UNL1        0.1835
     70 C          20.5253    1.0837    0.0000 C.3     1  UNL1        0.2406
     71 C           6.3474    2.9986    0.0000 C.3     1  UNL1        0.2144
     72 C          21.3932    1.5803    0.0000 C.3     1  UNL1        0.2198
     73 C          20.5330    3.0837    0.0000 C.3     1  UNL1        0.1803
     74 C           4.6154    3.0053    0.0000 C.3     1  UNL1        0.2142
     75 C          21.3971    2.5803    0.0000 C.3     1  UNL1        0.2143
@<TRIPOS>BOND
     1     1    40    1
     2     4    49    1
     3     5    54    1
     4     5    60    1
     5     6    55    1
     6     6    62    1
     7    13    64    1
     8    13    69    1
     9    14    65   ar
    10    15    65   ar
    11    16    67    1
    12    16    73    1
    13    22    74    1
    14    24    25    1
    15    24    27    1
    16    24    29    1
    17    24    39    1
    18    25    26    1
    19    25    36    1
    20    26    28    1
    21    26    37    1
    22    26    42    1
    23    27    30    1
    24    27    35    1
    25    27    44    1
    26    28    32    1
    27    28    33    1
    28    29    32    1
    29    30    31    1
    30    30    41    2
    31    31    34    1
    32    31    45    1
    33    33    40    1
    34    33    49    1
    35    33    50    1
    36    34    38    1
    37    34    46    1
    38    34    51    1
    39    35    38    1
    40    36    41    1
    41    37    43    1
    42    40    43    1
    43    45    47    1
    44    46     2    1
    45    46    48    1
    46    47    48    1
    47    47    52    1
    48    47    53    1
    49    48     3    1
    50    54     1    1
    51    54    56    1
    52    55     2    1
    53    55    57    1
    54    56     7    1
    55    56    58    1
    56    57     8    1
    57    57    59    1
    58    58     9    1
    59    58    61    1
    60    59    10    1
    61    59    63    1
    62    60    61    1
    63    60    65    1
    64    61    11    1
    65    62    63    1
    66    63    12    1
    67    64     7    1
    68    64    66    1
    69    66    17    1
    70    66    68    1
    71    67    10    1
    72    67    70    1
    73    68    18    1
    74    68    71    1
    75    69    71    1
    76    69    74    1
    77    70    19    1
    78    70    72    1
    79    71    20    1
    80    72    21    1
    81    72    75    1
    82    73    75    1
    83    75    23    1
