@<TRIPOS>MOLECULE
IMPHY004500
 48 48 0 0 0
SMALL
GASTEIGER

@<TRIPOS>ATOM
      1 O           8.0052    4.9594    0.0000 O.3     1  UNL1       -0.4806
      2 O           6.2731    4.9594    0.0000 O.2     1  UNL1       -0.2510
      3 C           2.8090   -4.0406    0.0000 C.3     1  UNL1       -0.0410
      4 C           2.0000   -4.6284    0.0000 C.3     1  UNL1       -0.0502
      5 C           3.6180   -4.6284    0.0000 C.3     1  UNL1       -0.0502
      6 C           2.3090   -5.5794    0.0000 C.3     1  UNL1       -0.0528
      7 C           3.3090   -5.5794    0.0000 C.3     1  UNL1       -0.0528
      8 C           2.8090   -3.0406    0.0000 C.3     1  UNL1       -0.0502
      9 C           3.6750   -2.5406    0.0000 C.3     1  UNL1       -0.0528
     10 C           3.6750   -1.5406    0.0000 C.3     1  UNL1       -0.0530
     11 C           4.5411   -1.0406    0.0000 C.3     1  UNL1       -0.0531
     12 C           4.5411   -0.0406    0.0000 C.3     1  UNL1       -0.0531
     13 C           5.4071    0.4594    0.0000 C.3     1  UNL1       -0.0531
     14 C           5.4071    1.4594    0.0000 C.3     1  UNL1       -0.0530
     15 C           6.2731    1.9594    0.0000 C.3     1  UNL1       -0.0526
     16 C           6.2731    2.9594    0.0000 C.3     1  UNL1       -0.0430
     17 C           7.1391    3.4594    0.0000 C.3     1  UNL1        0.0448
     18 C           7.1391    4.4594    0.0000 C.2     1  UNL1        0.3047
     19 H           3.3614   -3.7591    0.0000 H       1  UNL1        0.0301
     20 H           1.6900   -4.0914    0.0000 H       1  UNL1        0.0268
     21 H           1.4336   -4.8805    0.0000 H       1  UNL1        0.0268
     22 H           4.1844   -4.8805    0.0000 H       1  UNL1        0.0268
     23 H           3.9280   -4.0914    0.0000 H       1  UNL1        0.0268
     24 H           1.7026   -5.7083    0.0000 H       1  UNL1        0.0265
     25 H           2.3738   -6.1960    0.0000 H       1  UNL1        0.0265
     26 H           3.2442   -6.1960    0.0000 H       1  UNL1        0.0265
     27 H           3.9155   -5.7083    0.0000 H       1  UNL1        0.0265
     28 H           2.5970   -2.4580    0.0000 H       1  UNL1        0.0268
     29 H           2.1984   -3.1482    0.0000 H       1  UNL1        0.0268
     30 H           3.8871   -3.1232    0.0000 H       1  UNL1        0.0265
     31 H           4.2856   -2.4329    0.0000 H       1  UNL1        0.0265
     32 H           3.4630   -0.9580    0.0000 H       1  UNL1        0.0265
     33 H           3.0645   -1.6482    0.0000 H       1  UNL1        0.0265
     34 H           4.7531   -1.6232    0.0000 H       1  UNL1        0.0265
     35 H           5.1516   -0.9329    0.0000 H       1  UNL1        0.0265
     36 H           4.3290    0.5420    0.0000 H       1  UNL1        0.0265
     37 H           3.9305   -0.1482    0.0000 H       1  UNL1        0.0265
     38 H           5.6192   -0.1232    0.0000 H       1  UNL1        0.0265
     39 H           6.0177    0.5671    0.0000 H       1  UNL1        0.0265
     40 H           5.1950    2.0420    0.0000 H       1  UNL1        0.0265
     41 H           4.7965    1.3518    0.0000 H       1  UNL1        0.0265
     42 H           6.4852    1.3768    0.0000 H       1  UNL1        0.0265
     43 H           6.8837    2.0671    0.0000 H       1  UNL1        0.0265
     44 H           6.0611    3.5420    0.0000 H       1  UNL1        0.0270
     45 H           5.6625    2.8518    0.0000 H       1  UNL1        0.0270
     46 H           7.3512    2.8768    0.0000 H       1  UNL1        0.0377
     47 H           7.7497    3.5671    0.0000 H       1  UNL1        0.0377
     48 H           8.0052    5.5794    0.0000 H       1  UNL1        0.2951
@<TRIPOS>BOND
     1     1    18    1
     2     1    48    1
     3     2    18    2
     4     3     4    1
     5     3     5    1
     6     3     8    1
     7     3    19    1
     8     4     6    1
     9     4    20    1
    10     4    21    1
    11     5     7    1
    12     5    22    1
    13     5    23    1
    14     6     7    1
    15     6    24    1
    16     6    25    1
    17     7    26    1
    18     7    27    1
    19     8     9    1
    20     8    28    1
    21     8    29    1
    22     9    10    1
    23     9    30    1
    24     9    31    1
    25    10    11    1
    26    10    32    1
    27    10    33    1
    28    11    12    1
    29    11    34    1
    30    11    35    1
    31    12    13    1
    32    12    36    1
    33    12    37    1
    34    13    14    1
    35    13    38    1
    36    13    39    1
    37    14    15    1
    38    14    40    1
    39    14    41    1
    40    15    16    1
    41    15    42    1
    42    15    43    1
    43    16    17    1
    44    16    44    1
    45    16    45    1
    46    17    18    1
    47    17    46    1
    48    17    47    1
