@<TRIPOS>MOLECULE
IMPHY009360
 38 39 0 0 0
SMALL
GASTEIGER

@<TRIPOS>ATOM
      1 O           8.1282    1.5241    0.0000 O.2     1  UNL1       -0.2927
      2 C           5.4641   -0.0000    0.0000 C.3     1  UNL1       -0.0072
      3 C           4.5981   -0.5000    0.0000 C.3     1  UNL1       -0.0371
      4 C           6.3580   -0.5347    0.0000 C.3     1  UNL1       -0.0278
      5 C           5.4641    1.0000    0.0000 C.2     1  UNL1       -0.0601
      6 C           3.7320   -0.0000    0.0000 C.3     1  UNL1       -0.0193
      7 C           4.5981    1.5000    0.0000 C.3     1  UNL1       -0.0303
      8 C           3.7320    1.0000    0.0000 C.3     1  UNL1       -0.0428
      9 C           5.4641   -1.0000    0.0000 C.3     1  UNL1       -0.0556
     10 C           7.2641   -0.0208    0.0000 C.3     1  UNL1        0.0132
     11 C           6.3580    1.5346    0.0000 C.2     1  UNL1       -0.0194
     12 C           6.3465   -1.5346    0.0000 C.3     1  UNL1       -0.0612
     13 C           7.2641    1.0208    0.0000 C.2     1  UNL1        0.1564
     14 C           2.8660   -0.5000    0.0000 C.2     1  UNL1       -0.0766
     15 C           2.0000   -0.0000    0.0000 C.3     1  UNL1       -0.0438
     16 C           2.8660   -1.5000    0.0000 C.2     1  UNL1       -0.0994
     17 H           4.1996   -0.9750    0.0000 H       1  UNL1        0.0279
     18 H           4.9966   -0.9750    0.0000 H       1  UNL1        0.0279
     19 H           6.8920   -0.8499    0.0000 H       1  UNL1        0.0311
     20 H           3.7320   -0.6200    0.0000 H       1  UNL1        0.0346
     21 H           4.9966    1.9749    0.0000 H       1  UNL1        0.0310
     22 H           4.1996    1.9749    0.0000 H       1  UNL1        0.0310
     23 H           3.5200    1.5826    0.0000 H       1  UNL1        0.0274
     24 H           3.1215    0.8923    0.0000 H       1  UNL1        0.0274
     25 H           4.8441   -1.0000    0.0000 H       1  UNL1        0.0238
     26 H           5.4641   -1.6200    0.0000 H       1  UNL1        0.0238
     27 H           6.0841   -1.0000    0.0000 H       1  UNL1        0.0238
     28 H           7.4732   -0.6045    0.0000 H       1  UNL1        0.0348
     29 H           7.8750    0.0852    0.0000 H       1  UNL1        0.0348
     30 H           6.3509    2.1546    0.0000 H       1  UNL1        0.0652
     31 H           5.7265   -1.5275    0.0000 H       1  UNL1        0.0233
     32 H           6.3393   -2.1546    0.0000 H       1  UNL1        0.0233
     33 H           6.9664   -1.5418    0.0000 H       1  UNL1        0.0233
     34 H           2.3100    0.5369    0.0000 H       1  UNL1        0.0274
     35 H           1.4631    0.3100    0.0000 H       1  UNL1        0.0274
     36 H           1.6900   -0.5370    0.0000 H       1  UNL1        0.0274
     37 H           2.3291   -1.8100    0.0000 H       1  UNL1        0.0534
     38 H           3.4030   -1.8100    0.0000 H       1  UNL1        0.0534
@<TRIPOS>BOND
     1     1    13    2
     2     2     3    1
     3     2     4    1
     4     2     5    1
     5     2     9    1
     6     3     6    1
     7     3    17    1
     8     3    18    1
     9     4    10    1
    10     4    12    1
    11     4    19    1
    12     5     7    1
    13     5    11    2
    14     6     8    1
    15     6    14    1
    16     6    20    1
    17     7     8    1
    18     7    21    1
    19     7    22    1
    20     8    23    1
    21     8    24    1
    22     9    25    1
    23     9    26    1
    24     9    27    1
    25    10    13    1
    26    10    28    1
    27    10    29    1
    28    11    13    1
    29    11    30    1
    30    12    31    1
    31    12    32    1
    32    12    33    1
    33    14    15    1
    34    14    16    2
    35    15    34    1
    36    15    35    1
    37    15    36    1
    38    16    37    1
    39    16    38    1
