@<TRIPOS>MOLECULE
IMPHY002145
 26 29 0 0 0
SMALL
GASTEIGER

@<TRIPOS>ATOM
      1 O           2.0000    0.1577    0.0000 O.2     1  UNL1       -0.2673
      2 O           7.1097   -2.0542    0.0000 O.2     1  UNL1       -0.2679
      3 N           3.7602   -0.0304    0.0000 N.ar    1  UNL1       -0.2743
      4 N           5.3799   -2.1014    0.0000 N.ar    1  UNL1       -0.3209
      5 C           4.5692   -0.6182    0.0000 C.ar    1  UNL1        0.0813
      6 C           5.3782   -0.0304    0.0000 C.ar    1  UNL1        0.0152
      7 C           4.0692    0.9206    0.0000 C.ar    1  UNL1        0.0579
      8 C           5.0692    0.9206    0.0000 C.ar    1  UNL1        0.0083
      9 C           4.4763   -1.6557    0.0000 C.ar    1  UNL1        0.0669
     10 C           6.2345   -0.5614    0.0000 C.ar    1  UNL1        0.0126
     11 C           2.8022   -0.4394    0.0000 C.ar    1  UNL1        0.2563
     12 C           3.5345    1.8146    0.0000 C.ar    1  UNL1       -0.0371
     13 C           5.6038    1.8146    0.0000 C.ar    1  UNL1       -0.0520
     14 C           3.5280   -2.0867    0.0000 C.ar    1  UNL1       -0.0311
     15 C           6.2353   -1.5690    0.0000 C.ar    1  UNL1        0.2498
     16 C           2.6853   -1.4744    0.0000 C.ar    1  UNL1        0.0053
     17 C           4.0484    2.7206    0.0000 C.ar    1  UNL1       -0.0598
     18 C           5.0900    2.7206    0.0000 C.ar    1  UNL1       -0.0611
     19 H           6.7761   -0.2597    0.0000 H       1  UNL1        0.0678
     20 H           2.9146    1.8074    0.0000 H       1  UNL1        0.0638
     21 H           6.2238    1.8074    0.0000 H       1  UNL1        0.0624
     22 H           5.4104   -2.7206    0.0000 H       1  UNL1        0.1690
     23 H           3.4656   -2.7036    0.0000 H       1  UNL1        0.0640
     24 H           2.1179   -1.7244    0.0000 H       1  UNL1        0.0672
     25 H           3.7363    3.2564    0.0000 H       1  UNL1        0.0618
     26 H           5.4021    3.2564    0.0000 H       1  UNL1        0.0618
@<TRIPOS>BOND
     1     1    11    2
     2     2    15    2
     3     3     5   ar
     4     3     7   ar
     5     3    11   ar
     6     4     9   ar
     7     4    15   ar
     8     4    22    1
     9     5     6   ar
    10     5     9   ar
    11     6     8   ar
    12     6    10   ar
    13     7     8   ar
    14     7    12   ar
    15     8    13   ar
    16     9    14   ar
    17    10    15   ar
    18    10    19    1
    19    11    16   ar
    20    12    17   ar
    21    12    20    1
    22    13    18   ar
    23    13    21    1
    24    14    16   ar
    25    14    23    1
    26    16    24    1
    27    17    18   ar
    28    17    25    1
    29    18    26    1
