@<TRIPOS>MOLECULE
IMPHY003652
 72 76 0 0 0
SMALL
GASTEIGER

@<TRIPOS>ATOM
      1 O          10.7664    2.2554    0.0000 O.3     1  UNL1       -0.4914
      2 O          12.5403    1.2313    0.0000 O.3     1  UNL1       -0.4914
      3 O           2.8698    0.7181    0.0000 O.3     1  UNL1       -0.4914
      4 O           2.8544    2.7180    0.0000 O.3     1  UNL1       -0.5033
      5 N           9.0223   -1.8138    0.0000 N.3     1  UNL1       -0.2948
      6 N           7.2641    1.2311    0.0000 N.3     1  UNL1       -0.3090
      7 C           7.2223   -0.7930    0.0000 C.3     1  UNL1       -0.0336
      8 C           7.2223   -1.8346    0.0000 C.3     1  UNL1       -0.0255
      9 C           9.0223   -0.8138    0.0000 C.3     1  UNL1        0.0363
     10 C           8.1283   -0.2792    0.0000 C.3     1  UNL1       -0.0300
     11 C           8.1283   -2.3485    0.0000 C.3     1  UNL1        0.0026
     12 C           6.3582   -0.2897    0.0000 C.3     1  UNL1       -0.0302
     13 C           9.8883   -2.3138    0.0000 C.3     1  UNL1        0.0035
     14 C           6.3582   -2.3380    0.0000 C.3     1  UNL1       -0.0516
     15 C           9.8883   -0.3138    0.0000 C.ar    1  UNL1       -0.0234
     16 C           6.3620    0.7103    0.0000 C.3     1  UNL1        0.0335
     17 C          10.7543   -1.8138    0.0000 C.3     1  UNL1       -0.0144
     18 C          10.7543   -0.8138    0.0000 C.ar    1  UNL1       -0.0378
     19 C           5.4640    1.2381    0.0000 C.ar    1  UNL1       -0.0236
     20 C           6.3620   -3.3380    0.0000 C.3     1  UNL1       -0.0650
     21 C           9.8722    0.7277    0.0000 C.ar    1  UNL1       -0.0114
     22 C           7.2561    2.2727    0.0000 C.3     1  UNL1        0.0004
     23 C          11.6643   -0.3070    0.0000 C.ar    1  UNL1       -0.0128
     24 C           5.4563    2.2380    0.0000 C.ar    1  UNL1       -0.0378
     25 C           6.3461    2.7796    0.0000 C.3     1  UNL1       -0.0147
     26 C          10.7703    1.2554    0.0000 C.ar    1  UNL1        0.1618
     27 C          11.6724    0.7346    0.0000 C.ar    1  UNL1        0.1618
     28 C           4.6018    0.7314    0.0000 C.ar    1  UNL1       -0.0114
     29 C           4.5864    2.7313    0.0000 C.ar    1  UNL1       -0.0130
     30 C           3.7320    1.2247    0.0000 C.ar    1  UNL1        0.1616
     31 C           3.7243    2.2247    0.0000 C.ar    1  UNL1        0.1587
     32 C          11.6305    2.7588    0.0000 C.3     1  UNL1        0.0790
     33 C          13.4044    0.7279    0.0000 C.3     1  UNL1        0.0790
     34 C           2.0000    1.2114    0.0000 C.3     1  UNL1        0.0790
     35 H           7.2259   -0.1730    0.0000 H       1  UNL1        0.0305
     36 H           7.2259   -2.4546    0.0000 H       1  UNL1        0.0316
     37 H           9.0288    0.0361    0.0000 H       1  UNL1        0.0512
     38 H           8.5329    0.1906    0.0000 H       1  UNL1        0.0286
     39 H           7.7347    0.1998    0.0000 H       1  UNL1        0.0286
     40 H           7.7347   -2.8275    0.0000 H       1  UNL1        0.0429
     41 H           8.5329   -2.8183    0.0000 H       1  UNL1        0.0429
     42 H           5.7480   -0.1797    0.0000 H       1  UNL1        0.0286
     43 H           6.1439   -0.8715    0.0000 H       1  UNL1        0.0286
     44 H           9.4898   -2.7888    0.0000 H       1  UNL1        0.0430
     45 H          10.2868   -2.7888    0.0000 H       1  UNL1        0.0430
     46 H           6.1439   -1.7562    0.0000 H       1  UNL1        0.0266
     47 H           5.7480   -2.4480    0.0000 H       1  UNL1        0.0266
     48 H           6.8984    0.3993    0.0000 H       1  UNL1        0.0510
     49 H          10.9664   -2.3964    0.0000 H       1  UNL1        0.0326
     50 H          11.3649   -1.7062    0.0000 H       1  UNL1        0.0326
     51 H           7.8022    0.9232    0.0000 H       1  UNL1        0.1225
     52 H           5.7420   -3.3404    0.0000 H       1  UNL1        0.0230
     53 H           6.3644   -3.9580    0.0000 H       1  UNL1        0.0230
     54 H           6.9820   -3.3356    0.0000 H       1  UNL1        0.0230
     55 H           9.3318    1.0314    0.0000 H       1  UNL1        0.0659
     56 H           7.8677    2.1714    0.0000 H       1  UNL1        0.0427
     57 H           7.4606    2.8580    0.0000 H       1  UNL1        0.0427
     58 H          12.1976   -0.6232    0.0000 H       1  UNL1        0.0658
     59 H           6.7360    3.2616    0.0000 H       1  UNL1        0.0326
     60 H           5.9379    3.2462    0.0000 H       1  UNL1        0.0326
     61 H           4.6066    0.1114    0.0000 H       1  UNL1        0.0659
     62 H           4.5817    3.3513    0.0000 H       1  UNL1        0.0658
     63 H          11.9426    2.2230    0.0000 H       1  UNL1        0.0660
     64 H          12.1663    3.0708    0.0000 H       1  UNL1        0.0660
     65 H          11.3185    3.2945    0.0000 H       1  UNL1        0.0660
     66 H          13.0923    0.1922    0.0000 H       1  UNL1        0.0660
     67 H          13.9401    0.4159    0.0000 H       1  UNL1        0.0660
     68 H          13.7165    1.2637    0.0000 H       1  UNL1        0.0660
     69 H           2.8497    3.3380    0.0000 H       1  UNL1        0.2923
     70 H           2.3058    1.7507    0.0000 H       1  UNL1        0.0660
     71 H           1.4607    1.5172    0.0000 H       1  UNL1        0.0660
     72 H           1.6942    0.6721    0.0000 H       1  UNL1        0.0660
@<TRIPOS>BOND
     1     1    26    1
     2     1    32    1
     3     2    27    1
     4     2    33    1
     5     3    30    1
     6     3    34    1
     7     4    31    1
     8     4    69    1
     9     5     9    1
    10     5    11    1
    11     5    13    1
    12     6    16    1
    13     6    22    1
    14     6    51    1
    15     7     8    1
    16     7    10    1
    17     7    12    1
    18     7    35    1
    19     8    11    1
    20     8    14    1
    21     8    36    1
    22     9    10    1
    23     9    15    1
    24     9    37    1
    25    10    38    1
    26    10    39    1
    27    11    40    1
    28    11    41    1
    29    16    12    1
    30    12    42    1
    31    12    43    1
    32    13    17    1
    33    13    44    1
    34    13    45    1
    35    14    20    1
    36    14    46    1
    37    14    47    1
    38    15    18   ar
    39    15    21   ar
    40    16    19    1
    41    16    48    1
    42    17    18    1
    43    17    49    1
    44    17    50    1
    45    18    23   ar
    46    19    24   ar
    47    19    28   ar
    48    20    52    1
    49    20    53    1
    50    20    54    1
    51    21    26   ar
    52    21    55    1
    53    22    25    1
    54    22    56    1
    55    22    57    1
    56    23    27   ar
    57    23    58    1
    58    24    25    1
    59    24    29   ar
    60    25    59    1
    61    25    60    1
    62    26    27   ar
    63    28    30   ar
    64    28    61    1
    65    29    31   ar
    66    29    62    1
    67    30    31   ar
    68    32    63    1
    69    32    64    1
    70    32    65    1
    71    33    66    1
    72    33    67    1
    73    33    68    1
    74    34    70    1
    75    34    71    1
    76    34    72    1
