@<TRIPOS>MOLECULE
IMPHY000137
 47 49 0 0 0
SMALL
GASTEIGER

@<TRIPOS>ATOM
      1 O           6.3981   -0.2621    0.0000 O.2     1  UNL1       -0.4471
      2 O           4.6497   -1.2967    0.0000 O.3     1  UNL1       -0.4884
      3 O           8.1301    1.7379    0.0000 O.3     1  UNL1       -0.4883
      4 O           2.8680   -0.2862    0.0000 O.3     1  UNL1       -0.4884
      5 O           2.8680    1.7621    0.0000 O.3     1  UNL1       -0.4913
      6 O           6.3981    2.7379    0.0000 O.2     1  UNL1       -0.2831
      7 O          10.7282   -1.7621    0.0000 O.3     1  UNL1       -0.4951
      8 C           5.5320    1.2379    0.0000 C.ar    1  UNL1        0.0750
      9 C           5.5320    0.2379    0.0000 C.ar    1  UNL1        0.1848
     10 C           7.2641    0.2379    0.0000 C.ar    1  UNL1        0.1810
     11 C           4.6381   -0.2967    0.0000 C.ar    1  UNL1        0.2086
     12 C           6.3981    1.7379    0.0000 C.ar    1  UNL1        0.2348
     13 C           7.2641    1.2379    0.0000 C.ar    1  UNL1        0.2106
     14 C           4.6381    1.7726    0.0000 C.ar    1  UNL1       -0.0016
     15 C           3.7320    0.2171    0.0000 C.ar    1  UNL1        0.2073
     16 C           3.7320    1.2587    0.0000 C.ar    1  UNL1        0.1661
     17 C           8.1301   -0.2621    0.0000 C.ar    1  UNL1        0.0213
     18 C           8.1301   -1.2621    0.0000 C.ar    1  UNL1       -0.0475
     19 C           8.9962    0.2379    0.0000 C.ar    1  UNL1       -0.0475
     20 C           8.9962   -1.7621    0.0000 C.ar    1  UNL1       -0.0193
     21 C           9.8622   -0.2621    0.0000 C.ar    1  UNL1       -0.0193
     22 C           9.8622   -1.2621    0.0000 C.ar    1  UNL1        0.1201
     23 C           3.7895   -1.8066    0.0000 C.3     1  UNL1        0.0791
     24 C           8.1301    2.7379    0.0000 C.3     1  UNL1        0.0791
     25 C           2.0000    0.2104    0.0000 C.3     1  UNL1        0.0791
     26 C           2.8718    2.7621    0.0000 C.3     1  UNL1        0.0790
     27 C          10.7282   -2.7621    0.0000 C.3     1  UNL1        0.0788
     28 H           4.6453    2.3926    0.0000 H       1  UNL1        0.0664
     29 H           7.5932   -1.5721    0.0000 H       1  UNL1        0.0626
     30 H           8.9962    0.8579    0.0000 H       1  UNL1        0.0626
     31 H           8.9962   -2.3821    0.0000 H       1  UNL1        0.0654
     32 H          10.3991    0.0479    0.0000 H       1  UNL1        0.0654
     33 H           3.4733   -1.2733    0.0000 H       1  UNL1        0.0660
     34 H           3.2562   -2.1228    0.0000 H       1  UNL1        0.0660
     35 H           4.1057   -2.3400    0.0000 H       1  UNL1        0.0660
     36 H           8.7501    2.7379    0.0000 H       1  UNL1        0.0660
     37 H           8.1301    3.3579    0.0000 H       1  UNL1        0.0660
     38 H           7.5101    2.7379    0.0000 H       1  UNL1        0.0660
     39 H           2.3079    0.7486    0.0000 H       1  UNL1        0.0660
     40 H           1.4619    0.5184    0.0000 H       1  UNL1        0.0660
     41 H           1.6921   -0.3277    0.0000 H       1  UNL1        0.0660
     42 H           3.4918    2.7597    0.0000 H       1  UNL1        0.0660
     43 H           2.8742    3.3821    0.0000 H       1  UNL1        0.0660
     44 H           2.2518    2.7645    0.0000 H       1  UNL1        0.0660
     45 H          10.1082   -2.7621    0.0000 H       1  UNL1        0.0660
     46 H          10.7282   -3.3821    0.0000 H       1  UNL1        0.0660
     47 H          11.3482   -2.7621    0.0000 H       1  UNL1        0.0660
@<TRIPOS>BOND
     1     1     9   ar
     2     1    10   ar
     3     2    11    1
     4     2    23    1
     5     3    13    1
     6     3    24    1
     7     4    15    1
     8     4    25    1
     9     5    16    1
    10     5    26    1
    11     6    12    2
    12     7    22    1
    13     7    27    1
    14     8     9   ar
    15     8    12   ar
    16     8    14   ar
    17     9    11   ar
    18    10    13   ar
    19    10    17    1
    20    11    15   ar
    21    12    13   ar
    22    14    16   ar
    23    14    28    1
    24    15    16   ar
    25    17    18   ar
    26    17    19   ar
    27    18    20   ar
    28    18    29    1
    29    19    21   ar
    30    19    30    1
    31    20    22   ar
    32    20    31    1
    33    21    22   ar
    34    21    32    1
    35    23    33    1
    36    23    34    1
    37    23    35    1
    38    24    36    1
    39    24    37    1
    40    24    38    1
    41    25    39    1
    42    25    40    1
    43    25    41    1
    44    26    42    1
    45    26    43    1
    46    26    44    1
    47    27    45    1
    48    27    46    1
    49    27    47    1
