@<TRIPOS>MOLECULE
IMPHY017657
 25 24 0 0 0
SMALL
GASTEIGER

@<TRIPOS>ATOM
      1 O           4.5981    0.2500    0.0000 O.3     1  UNL1       -0.4570
      2 O           5.4641   -1.2500    0.0000 O.2     1  UNL1       -0.2453
      3 C           3.7320   -0.2500    0.0000 C.3     1  UNL1        0.1134
      4 C           6.3301    0.2500    0.0000 C.2     1  UNL1        0.0293
      5 C           2.8660    0.2500    0.0000 C.2     1  UNL1       -0.0428
      6 C           5.4641   -0.2500    0.0000 C.2     1  UNL1        0.3349
      7 C           6.3301    1.2500    0.0000 C.3     1  UNL1       -0.0333
      8 C           7.1962   -0.2500    0.0000 C.2     1  UNL1       -0.0774
      9 C           2.0000   -0.2500    0.0000 C.3     1  UNL1       -0.0409
     10 C           7.1962   -1.2500    0.0000 C.3     1  UNL1       -0.0461
     11 C           2.8660    1.2500    0.0000 C.2     1  UNL1       -0.0965
     12 H           3.3335   -0.7249    0.0000 H       1  UNL1        0.0745
     13 H           4.1306   -0.7249    0.0000 H       1  UNL1        0.0745
     14 H           6.9501    1.2500    0.0000 H       1  UNL1        0.0280
     15 H           6.3301    1.8700    0.0000 H       1  UNL1        0.0280
     16 H           5.7101    1.2500    0.0000 H       1  UNL1        0.0280
     17 H           7.7331    0.0600    0.0000 H       1  UNL1        0.0574
     18 H           1.6900    0.2869    0.0000 H       1  UNL1        0.0275
     19 H           1.4631   -0.5600    0.0000 H       1  UNL1        0.0275
     20 H           2.3100   -0.7869    0.0000 H       1  UNL1        0.0275
     21 H           6.5762   -1.2500    0.0000 H       1  UNL1        0.0272
     22 H           7.1962   -1.8700    0.0000 H       1  UNL1        0.0272
     23 H           7.8162   -1.2500    0.0000 H       1  UNL1        0.0272
     24 H           3.4030    1.5600    0.0000 H       1  UNL1        0.0535
     25 H           2.3291    1.5600    0.0000 H       1  UNL1        0.0535
@<TRIPOS>BOND
     1     1     3    1
     2     1     6    1
     3     2     6    2
     4     3     5    1
     5     3    12    1
     6     3    13    1
     7     4     6    1
     8     4     7    1
     9     4     8    2
    10     5     9    1
    11     5    11    2
    12     7    14    1
    13     7    15    1
    14     7    16    1
    15     8    10    1
    16     8    17    1
    17     9    18    1
    18     9    19    1
    19     9    20    1
    20    10    21    1
    21    10    22    1
    22    10    23    1
    23    11    24    1
    24    11    25    1
