@<TRIPOS>MOLECULE
IMPHY005421
 38 40 0 0 0
SMALL
GASTEIGER

@<TRIPOS>ATOM
      1 O           7.4693    1.7459    0.0000 O.3     1  UNL1       -0.4575
      2 O           7.5642    3.5197    0.0000 O.2     1  UNL1       -0.2453
      3 O           3.5000   -3.5197    0.0000 O.2     1  UNL1       -0.2977
      4 C           5.8663   -0.4212    0.0000 C.3     1  UNL1       -0.0225
      5 C           5.0003    0.0788    0.0000 C.3     1  UNL1       -0.0312
      6 C           5.0000   -0.9216    0.0000 C.3     1  UNL1       -0.0315
      7 C           6.7323    0.0788    0.0000 C.3     1  UNL1       -0.0091
      8 C           5.0003    1.0788    0.0000 C.3     1  UNL1       -0.0390
      9 C           5.8663    1.5788    0.0000 C.3     1  UNL1        0.0277
     10 C           6.7323    1.0788    0.0000 C.3     1  UNL1        0.1109
     11 C           4.5000   -1.7877    0.0000 C.3     1  UNL1       -0.0428
     12 C           6.7323   -0.9212    0.0000 C.3     1  UNL1       -0.0589
     13 C           6.0755    2.5506    0.0000 C.2     1  UNL1        0.0361
     14 C           3.5000   -1.7877    0.0000 C.3     1  UNL1        0.0058
     15 C           7.0642    2.6537    0.0000 C.2     1  UNL1        0.3353
     16 C           5.4076    3.2949    0.0000 C.2     1  UNL1       -0.0883
     17 C           3.0000   -2.6537    0.0000 C.2     1  UNL1        0.1303
     18 C           2.0000   -2.6537    0.0000 C.3     1  UNL1       -0.0061
     19 H           4.1503    0.0789    0.0000 H       1  UNL1        0.0309
     20 H           4.4012   -0.7611    0.0000 H       1  UNL1        0.0309
     21 H           6.9444   -0.5038    0.0000 H       1  UNL1        0.0306
     22 H           7.3429    0.1865    0.0000 H       1  UNL1        0.0306
     23 H           4.7882    1.6614    0.0000 H       1  UNL1        0.0275
     24 H           4.3897    0.9712    0.0000 H       1  UNL1        0.0275
     25 H           5.1793    2.0793    0.0000 H       1  UNL1        0.0387
     26 H           7.5093    0.7341    0.0000 H       1  UNL1        0.0740
     27 H           4.3923   -2.3982    0.0000 H       1  UNL1        0.0272
     28 H           5.0826   -1.9997    0.0000 H       1  UNL1        0.0272
     29 H           6.4223   -1.4581    0.0000 H       1  UNL1        0.0235
     30 H           7.2692   -1.2312    0.0000 H       1  UNL1        0.0235
     31 H           7.0423   -0.3843    0.0000 H       1  UNL1        0.0235
     32 H           3.6077   -1.1771    0.0000 H       1  UNL1        0.0342
     33 H           2.9174   -1.5756    0.0000 H       1  UNL1        0.0342
     34 H           5.6002    3.8842    0.0000 H       1  UNL1        0.0540
     35 H           4.8010    3.1671    0.0000 H       1  UNL1        0.0540
     36 H           2.0000   -2.0337    0.0000 H       1  UNL1        0.0306
     37 H           1.3800   -2.6537    0.0000 H       1  UNL1        0.0306
     38 H           2.0000   -3.2737    0.0000 H       1  UNL1        0.0306
@<TRIPOS>BOND
     1     1    10    1
     2     1    15    1
     3     2    15    2
     4     3    17    2
     5     4     5    1
     6     4     6    1
     7     4     7    1
     8     4    12    1
     9     5     6    1
    10     5     8    1
    11     5    19    1
    12     6    11    1
    13     6    20    1
    14     7    10    1
    15     7    21    1
    16     7    22    1
    17     8     9    1
    18     8    23    1
    19     8    24    1
    20     9    10    1
    21     9    13    1
    22     9    25    1
    23    10    26    1
    24    11    14    1
    25    11    27    1
    26    11    28    1
    27    12    29    1
    28    12    30    1
    29    12    31    1
    30    13    15    1
    31    13    16    2
    32    14    17    1
    33    14    32    1
    34    14    33    1
    35    16    34    1
    36    16    35    1
    37    17    18    1
    38    18    36    1
    39    18    37    1
    40    18    38    1
