@<TRIPOS>MOLECULE
IMPHY006926
 104 103 0 0 0
SMALL
GASTEIGER

@<TRIPOS>ATOM
      1 O          12.3923   -1.0950    0.0000 O.3     1  UNL1       -0.3918
      2 O          20.1865    1.4050    0.0000 O.2     1  UNL1       -0.2974
      3 C          12.3923   -0.0950    0.0000 C.3     1  UNL1        0.0553
      4 C          11.5263    0.4050    0.0000 C.3     1  UNL1       -0.0269
      5 C          13.2583    0.4050    0.0000 C.3     1  UNL1       -0.0269
      6 C          10.6603   -0.0950    0.0000 C.3     1  UNL1       -0.0507
      7 C          14.1244   -0.0950    0.0000 C.3     1  UNL1       -0.0507
      8 C           9.7942    0.4050    0.0000 C.3     1  UNL1       -0.0530
      9 C          14.9904    0.4050    0.0000 C.3     1  UNL1       -0.0530
     10 C           8.9282   -0.0950    0.0000 C.3     1  UNL1       -0.0531
     11 C          15.8564   -0.0950    0.0000 C.3     1  UNL1       -0.0531
     12 C           8.0622    0.4050    0.0000 C.3     1  UNL1       -0.0531
     13 C          16.7224    0.4050    0.0000 C.3     1  UNL1       -0.0530
     14 C           7.1962   -0.0950    0.0000 C.3     1  UNL1       -0.0531
     15 C          17.5885   -0.0950    0.0000 C.3     1  UNL1       -0.0527
     16 C           6.3301    0.4050    0.0000 C.3     1  UNL1       -0.0531
     17 C          18.4545    0.4050    0.0000 C.3     1  UNL1       -0.0464
     18 C           5.4641   -0.0950    0.0000 C.3     1  UNL1       -0.0531
     19 C          24.5167   -0.0950    0.0000 C.3     1  UNL1       -0.0531
     20 C          23.6506    0.4050    0.0000 C.3     1  UNL1       -0.0530
     21 C          25.3827    0.4050    0.0000 C.3     1  UNL1       -0.0531
     22 C          22.7846   -0.0950    0.0000 C.3     1  UNL1       -0.0527
     23 C          26.2487   -0.0950    0.0000 C.3     1  UNL1       -0.0531
     24 C          21.9186    0.4050    0.0000 C.3     1  UNL1       -0.0464
     25 C          19.3205   -0.0950    0.0000 C.3     1  UNL1        0.0058
     26 C           4.5981    0.4050    0.0000 C.3     1  UNL1       -0.0531
     27 C          27.1147    0.4050    0.0000 C.3     1  UNL1       -0.0531
     28 C          21.0526   -0.0950    0.0000 C.3     1  UNL1        0.0058
     29 C          20.1865    0.4050    0.0000 C.2     1  UNL1        0.1334
     30 C          27.9808   -0.0950    0.0000 C.3     1  UNL1       -0.0531
     31 C           3.7320   -0.0950    0.0000 C.3     1  UNL1       -0.0533
     32 C          28.8468    0.4050    0.0000 C.3     1  UNL1       -0.0533
     33 C           2.8660    0.4050    0.0000 C.3     1  UNL1       -0.0559
     34 C          29.7128   -0.0950    0.0000 C.3     1  UNL1       -0.0559
     35 C           2.0000   -0.0950    0.0000 C.3     1  UNL1       -0.0653
     36 C          30.5788    0.4050    0.0000 C.3     1  UNL1       -0.0653
     37 H          11.8554   -0.4050    0.0000 H       1  UNL1        0.0593
     38 H          11.9248    0.8799    0.0000 H       1  UNL1        0.0290
     39 H          11.1278    0.8799    0.0000 H       1  UNL1        0.0290
     40 H          13.6569    0.8799    0.0000 H       1  UNL1        0.0290
     41 H          12.8598    0.8799    0.0000 H       1  UNL1        0.0290
     42 H          10.2617   -0.5699    0.0000 H       1  UNL1        0.0266
     43 H          11.0588   -0.5699    0.0000 H       1  UNL1        0.0266
     44 H          13.7258   -0.5699    0.0000 H       1  UNL1        0.0266
     45 H          14.5229   -0.5699    0.0000 H       1  UNL1        0.0266
     46 H          10.1928    0.8799    0.0000 H       1  UNL1        0.0265
     47 H           9.3957    0.8799    0.0000 H       1  UNL1        0.0265
     48 H          15.3889    0.8799    0.0000 H       1  UNL1        0.0265
     49 H          14.5919    0.8799    0.0000 H       1  UNL1        0.0265
     50 H           8.5297   -0.5699    0.0000 H       1  UNL1        0.0265
     51 H           9.3267   -0.5699    0.0000 H       1  UNL1        0.0265
     52 H          15.4579   -0.5699    0.0000 H       1  UNL1        0.0265
     53 H          16.2549   -0.5699    0.0000 H       1  UNL1        0.0265
     54 H           8.4607    0.8799    0.0000 H       1  UNL1        0.0265
     55 H           7.6636    0.8799    0.0000 H       1  UNL1        0.0265
     56 H          17.1210    0.8799    0.0000 H       1  UNL1        0.0265
     57 H          16.3239    0.8799    0.0000 H       1  UNL1        0.0265
     58 H           6.7976   -0.5699    0.0000 H       1  UNL1        0.0265
     59 H           7.5947   -0.5699    0.0000 H       1  UNL1        0.0265
     60 H          17.1899   -0.5699    0.0000 H       1  UNL1        0.0265
     61 H          17.9870   -0.5699    0.0000 H       1  UNL1        0.0265
     62 H           6.7287    0.8799    0.0000 H       1  UNL1        0.0265
     63 H           5.9316    0.8799    0.0000 H       1  UNL1        0.0265
     64 H          18.8530    0.8799    0.0000 H       1  UNL1        0.0269
     65 H          18.0560    0.8799    0.0000 H       1  UNL1        0.0269
     66 H           5.0656   -0.5699    0.0000 H       1  UNL1        0.0265
     67 H           5.8626   -0.5699    0.0000 H       1  UNL1        0.0265
     68 H          24.1181   -0.5699    0.0000 H       1  UNL1        0.0265
     69 H          24.9152   -0.5699    0.0000 H       1  UNL1        0.0265
     70 H          24.0492    0.8799    0.0000 H       1  UNL1        0.0265
     71 H          23.2521    0.8799    0.0000 H       1  UNL1        0.0265
     72 H          25.7812    0.8799    0.0000 H       1  UNL1        0.0265
     73 H          24.9842    0.8799    0.0000 H       1  UNL1        0.0265
     74 H          22.3861   -0.5699    0.0000 H       1  UNL1        0.0265
     75 H          23.1831   -0.5699    0.0000 H       1  UNL1        0.0265
     76 H          25.8502   -0.5699    0.0000 H       1  UNL1        0.0265
     77 H          26.6472   -0.5699    0.0000 H       1  UNL1        0.0265
     78 H          22.3171    0.8799    0.0000 H       1  UNL1        0.0269
     79 H          21.5201    0.8799    0.0000 H       1  UNL1        0.0269
     80 H          18.9220   -0.5699    0.0000 H       1  UNL1        0.0342
     81 H          19.7190   -0.5699    0.0000 H       1  UNL1        0.0342
     82 H           4.9966    0.8799    0.0000 H       1  UNL1        0.0265
     83 H           4.1996    0.8799    0.0000 H       1  UNL1        0.0265
     84 H          27.5133    0.8799    0.0000 H       1  UNL1        0.0265
     85 H          26.7162    0.8799    0.0000 H       1  UNL1        0.0265
     86 H          20.6540   -0.5699    0.0000 H       1  UNL1        0.0342
     87 H          21.4511   -0.5699    0.0000 H       1  UNL1        0.0342
     88 H          11.8554   -1.4050    0.0000 H       1  UNL1        0.2098
     89 H          27.5822   -0.5699    0.0000 H       1  UNL1        0.0265
     90 H          28.3793   -0.5699    0.0000 H       1  UNL1        0.0265
     91 H           3.3335   -0.5699    0.0000 H       1  UNL1        0.0265
     92 H           4.1306   -0.5699    0.0000 H       1  UNL1        0.0265
     93 H          29.2453    0.8799    0.0000 H       1  UNL1        0.0265
     94 H          28.4483    0.8799    0.0000 H       1  UNL1        0.0265
     95 H           3.2646    0.8799    0.0000 H       1  UNL1        0.0263
     96 H           2.4675    0.8799    0.0000 H       1  UNL1        0.0263
     97 H          29.3143   -0.5699    0.0000 H       1  UNL1        0.0263
     98 H          30.1113   -0.5699    0.0000 H       1  UNL1        0.0263
     99 H           1.6900    0.4419    0.0000 H       1  UNL1        0.0230
    100 H           1.4631   -0.4050    0.0000 H       1  UNL1        0.0230
    101 H           2.3100   -0.6319    0.0000 H       1  UNL1        0.0230
    102 H          30.8888   -0.1319    0.0000 H       1  UNL1        0.0230
    103 H          31.1158    0.7150    0.0000 H       1  UNL1        0.0230
    104 H          30.2688    0.9419    0.0000 H       1  UNL1        0.0230
@<TRIPOS>BOND
     1     1     3    1
     2     1    88    1
     3     2    29    2
     4     3     4    1
     5     3     5    1
     6     3    37    1
     7     4     6    1
     8     4    38    1
     9     4    39    1
    10     5     7    1
    11     5    40    1
    12     5    41    1
    13     6     8    1
    14     6    42    1
    15     6    43    1
    16     7     9    1
    17     7    44    1
    18     7    45    1
    19     8    10    1
    20     8    46    1
    21     8    47    1
    22     9    11    1
    23     9    48    1
    24     9    49    1
    25    10    12    1
    26    10    50    1
    27    10    51    1
    28    11    13    1
    29    11    52    1
    30    11    53    1
    31    12    14    1
    32    12    54    1
    33    12    55    1
    34    13    15    1
    35    13    56    1
    36    13    57    1
    37    14    16    1
    38    14    58    1
    39    14    59    1
    40    15    17    1
    41    15    60    1
    42    15    61    1
    43    16    18    1
    44    16    62    1
    45    16    63    1
    46    17    25    1
    47    17    64    1
    48    17    65    1
    49    18    26    1
    50    18    66    1
    51    18    67    1
    52    19    20    1
    53    19    21    1
    54    19    68    1
    55    19    69    1
    56    20    22    1
    57    20    70    1
    58    20    71    1
    59    21    23    1
    60    21    72    1
    61    21    73    1
    62    22    24    1
    63    22    74    1
    64    22    75    1
    65    23    27    1
    66    23    76    1
    67    23    77    1
    68    24    28    1
    69    24    78    1
    70    24    79    1
    71    25    29    1
    72    25    80    1
    73    25    81    1
    74    26    31    1
    75    26    82    1
    76    26    83    1
    77    27    30    1
    78    27    84    1
    79    27    85    1
    80    28    29    1
    81    28    86    1
    82    28    87    1
    83    30    32    1
    84    30    89    1
    85    30    90    1
    86    31    33    1
    87    31    91    1
    88    31    92    1
    89    32    34    1
    90    32    93    1
    91    32    94    1
    92    33    35    1
    93    33    95    1
    94    33    96    1
    95    34    36    1
    96    34    97    1
    97    34    98    1
    98    35    99    1
    99    35   100    1
   100    35   101    1
   101    36   102    1
   102    36   103    1
   103    36   104    1
