@<TRIPOS>MOLECULE
IMPHY013828
 25 25 0 0 0
SMALL
GASTEIGER

@<TRIPOS>ATOM
      1 O           3.7320    1.7500    0.0000 O.3     1  UNL1       -0.4946
      2 C           2.8660    0.2500    0.0000 C.ar    1  UNL1       -0.0083
      3 C           4.5981    0.2500    0.0000 C.ar    1  UNL1       -0.0083
      4 C           3.7320    0.7500    0.0000 C.ar    1  UNL1        0.1259
      5 C           3.7320   -1.2500    0.0000 C.ar    1  UNL1       -0.0497
      6 C           2.8660   -0.7500    0.0000 C.ar    1  UNL1       -0.0524
      7 C           4.5981   -0.7500    0.0000 C.ar    1  UNL1       -0.0524
      8 C           2.0000    0.7500    0.0000 C.3     1  UNL1       -0.0362
      9 C           5.4641    0.7500    0.0000 C.3     1  UNL1       -0.0362
     10 C           3.7320   -2.2500    0.0000 C.3     1  UNL1       -0.0397
     11 C           4.5981    2.2500    0.0000 C.3     1  UNL1        0.0788
     12 H           2.3291   -1.0600    0.0000 H       1  UNL1        0.0624
     13 H           5.1350   -1.0600    0.0000 H       1  UNL1        0.0624
     14 H           2.3100    1.2869    0.0000 H       1  UNL1        0.0279
     15 H           1.4631    1.0600    0.0000 H       1  UNL1        0.0279
     16 H           1.6900    0.2131    0.0000 H       1  UNL1        0.0279
     17 H           5.7741    0.2131    0.0000 H       1  UNL1        0.0279
     18 H           6.0010    1.0600    0.0000 H       1  UNL1        0.0279
     19 H           5.1541    1.2869    0.0000 H       1  UNL1        0.0279
     20 H           3.1120   -2.2500    0.0000 H       1  UNL1        0.0278
     21 H           3.7320   -2.8700    0.0000 H       1  UNL1        0.0278
     22 H           4.3520   -2.2500    0.0000 H       1  UNL1        0.0278
     23 H           4.9081    1.7131    0.0000 H       1  UNL1        0.0660
     24 H           5.1350    2.5600    0.0000 H       1  UNL1        0.0660
     25 H           4.2881    2.7869    0.0000 H       1  UNL1        0.0660
@<TRIPOS>BOND
     1     1     4    1
     2     1    11    1
     3     2     4   ar
     4     2     6   ar
     5     2     8    1
     6     3     4   ar
     7     3     7   ar
     8     3     9    1
     9     5     6   ar
    10     5     7   ar
    11     5    10    1
    12     6    12    1
    13     7    13    1
    14     8    14    1
    15     8    15    1
    16     8    16    1
    17     9    17    1
    18     9    18    1
    19     9    19    1
    20    10    20    1
    21    10    21    1
    22    10    22    1
    23    11    23    1
    24    11    24    1
    25    11    25    1
