@<TRIPOS>MOLECULE
IMPHY000050
 61 64 0 0 0
SMALL
GASTEIGER

@<TRIPOS>ATOM
      1 O           8.8050    0.8300    0.0000 O.3     1  UNL1       -0.3849
      2 O           3.4923   -2.5229    0.0000 O.3     1  UNL1       -0.4602
      3 O           9.5893    1.7303    0.0000 O.3     1  UNL1       -0.4619
      4 O           2.0000   -3.4022    0.0000 O.2     1  UNL1       -0.2546
      5 O          10.0417    3.4022    0.0000 O.2     1  UNL1       -0.2512
      6 C           6.6961   -0.0408    0.0000 C.3     1  UNL1       -0.0228
      7 C           5.8276    0.4548    0.0000 C.3     1  UNL1       -0.0295
      8 C           4.9201   -0.0565    0.0000 C.3     1  UNL1       -0.0223
      9 C           7.3477    2.1096    0.0000 C.3     1  UNL1       -0.0084
     10 C           6.6716    1.1405    0.0000 C.3     1  UNL1       -0.0414
     11 C           4.9173   -1.0982    0.0000 C.3     1  UNL1        0.0044
     12 C           7.6251    0.3292    0.0000 C.3     1  UNL1       -0.0146
     13 C           6.7173   -1.0822    0.0000 C.3     1  UNL1       -0.0466
     14 C           7.9151    1.2862    0.0000 C.3     1  UNL1        0.1033
     15 C           5.6736    1.4429    0.0000 C.3     1  UNL1       -0.0489
     16 C           5.8219   -1.6145    0.0000 C.3     1  UNL1       -0.0456
     17 C           6.3501    2.1794    0.0000 C.3     1  UNL1       -0.0472
     18 C           3.9905    0.5029    0.0000 C.3     1  UNL1       -0.0468
     19 C           3.9846   -1.6525    0.0000 C.3     1  UNL1        0.1138
     20 C           4.5806    0.8841    0.0000 C.3     1  UNL1       -0.0589
     21 C           3.0452   -0.0297    0.0000 C.3     1  UNL1       -0.0489
     22 C           3.0423   -1.1147    0.0000 C.3     1  UNL1       -0.0128
     23 C           8.6240    1.9915    0.0000 C.3     1  UNL1        0.1213
     24 C           4.4922   -2.5141    0.0000 C.3     1  UNL1       -0.0246
     25 C           2.4923   -2.5318    0.0000 C.2     1  UNL1        0.2948
     26 C          10.2981    2.4356    0.0000 C.2     1  UNL1        0.3040
     27 C          11.2634    2.1744    0.0000 C.3     1  UNL1        0.0332
     28 H           5.0893    0.8762    0.0000 H       1  UNL1        0.0311
     29 H           7.5942    2.9231    0.0000 H       1  UNL1        0.0330
     30 H           6.2974    1.6348    0.0000 H       1  UNL1        0.0274
     31 H           6.0859    0.9371    0.0000 H       1  UNL1        0.0274
     32 H           4.9248   -1.9481    0.0000 H       1  UNL1        0.0345
     33 H           7.7206   -0.2835    0.0000 H       1  UNL1        0.0299
     34 H           8.2436    0.2859    0.0000 H       1  UNL1        0.0299
     35 H           6.9383   -1.6616    0.0000 H       1  UNL1        0.0271
     36 H           7.3259   -0.9637    0.0000 H       1  UNL1        0.0271
     37 H           5.3218    1.9534    0.0000 H       1  UNL1        0.0268
     38 H           5.0976    1.2135    0.0000 H       1  UNL1        0.0268
     39 H           5.4270   -2.0924    0.0000 H       1  UNL1        0.0270
     40 H           6.2253   -2.0854    0.0000 H       1  UNL1        0.0270
     41 H           6.5299    2.7727    0.0000 H       1  UNL1        0.0269
     42 H           5.8116    2.4867    0.0000 H       1  UNL1        0.0269
     43 H           4.3964    0.9716    0.0000 H       1  UNL1        0.0271
     44 H           3.5982    0.9830    0.0000 H       1  UNL1        0.0271
     45 H           5.1638    1.0946    0.0000 H       1  UNL1        0.0235
     46 H           4.3702    1.4673    0.0000 H       1  UNL1        0.0235
     47 H           3.9975    0.6736    0.0000 H       1  UNL1        0.0235
     48 H           2.8378    0.5545    0.0000 H       1  UNL1        0.0267
     49 H           2.4341   -0.1342    0.0000 H       1  UNL1        0.0267
     50 H           2.4317   -1.0070    0.0000 H       1  UNL1        0.0304
     51 H           2.8316   -1.6979    0.0000 H       1  UNL1        0.0304
     52 H           8.8874    2.5528    0.0000 H       1  UNL1        0.0727
     53 H           8.1170    2.3484    0.0000 H       1  UNL1        0.0727
     54 H           3.9581   -2.8288    0.0000 H       1  UNL1        0.0268
     55 H           4.8070   -3.0483    0.0000 H       1  UNL1        0.0268
     56 H           5.0264   -2.1994    0.0000 H       1  UNL1        0.0268
     57 H           8.8359    0.2107    0.0000 H       1  UNL1        0.2103
     58 H           2.1776   -1.9976    0.0000 H       1  UNL1        0.1512
     59 H          11.1014    1.5759    0.0000 H       1  UNL1        0.0342
     60 H          11.8619    2.0124    0.0000 H       1  UNL1        0.0342
     61 H          11.4254    2.7729    0.0000 H       1  UNL1        0.0342
@<TRIPOS>BOND
     1    14     1    1
     2     1    57    1
     3    19     2    1
     4     2    25    1
     5     3    23    1
     6     3    26    1
     7     4    25    2
     8     5    26    2
     9     6     7    1
    10     6    10    1
    11     6    12    1
    12     6    13    1
    13     7     8    1
    14     7    15    1
    15     7    28    1
    16     8    11    1
    17     8    18    1
    18     8    20    1
    19     9    10    1
    20     9    14    1
    21     9    17    1
    22     9    29    1
    23    10    30    1
    24    10    31    1
    25    11    16    1
    26    11    19    1
    27    11    32    1
    28    12    14    1
    29    12    33    1
    30    12    34    1
    31    13    16    1
    32    13    35    1
    33    13    36    1
    34    14    23    1
    35    15    17    1
    36    15    37    1
    37    15    38    1
    38    16    39    1
    39    16    40    1
    40    17    41    1
    41    17    42    1
    42    18    21    1
    43    18    43    1
    44    18    44    1
    45    19    22    1
    46    19    24    1
    47    20    45    1
    48    20    46    1
    49    20    47    1
    50    21    22    1
    51    21    48    1
    52    21    49    1
    53    22    50    1
    54    22    51    1
    55    23    52    1
    56    23    53    1
    57    24    54    1
    58    24    55    1
    59    24    56    1
    60    25    58    1
    61    26    27    1
    62    27    59    1
    63    27    60    1
    64    27    61    1
