@<TRIPOS>MOLECULE
IMPHY015466
 33 35 0 0 0
SMALL
GASTEIGER

@<TRIPOS>ATOM
      1 O           5.4050    0.7751    0.0000 O.2     1  UNL1       -0.2760
      2 N           4.5390    2.2751    0.0000 N.am    1  UNL1       -0.3293
      3 C           3.6730   -0.2249    0.0000 C.3     1  UNL1       -0.0203
      4 C           4.5092   -1.6732    0.0000 C.3     1  UNL1       -0.0400
      5 C           2.8368   -1.6732    0.0000 C.3     1  UNL1       -0.0400
      6 C           2.9819   -2.1083    0.0000 C.3     1  UNL1       -0.0400
      7 C           4.5092   -0.7077    0.0000 C.3     1  UNL1       -0.0440
      8 C           2.8368   -0.7077    0.0000 C.3     1  UNL1       -0.0440
      9 C           2.9819   -1.0630    0.0000 C.3     1  UNL1       -0.0440
     10 C           3.6730   -1.9760    0.0000 C.3     1  UNL1       -0.0473
     11 C           3.8876   -2.5851    0.0000 C.3     1  UNL1       -0.0473
     12 C           2.0000   -2.1560    0.0000 C.3     1  UNL1       -0.0473
     13 C           3.6730    0.7751    0.0000 C.3     1  UNL1        0.0294
     14 C           4.5390    1.2751    0.0000 C.2     1  UNL1        0.2110
     15 H           5.1016   -1.8559    0.0000 H       1  UNL1        0.0301
     16 H           3.3444   -1.3172    0.0000 H       1  UNL1        0.0301
     17 H           2.8478   -2.7136    0.0000 H       1  UNL1        0.0301
     18 H           5.1198   -0.8153    0.0000 H       1  UNL1        0.0273
     19 H           4.7212   -0.1251    0.0000 H       1  UNL1        0.0273
     20 H           2.6247   -0.1251    0.0000 H       1  UNL1        0.0273
     21 H           2.2262   -0.8153    0.0000 H       1  UNL1        0.0273
     22 H           2.6383   -0.5470    0.0000 H       1  UNL1        0.0273
     23 H           2.3885   -1.2425    0.0000 H       1  UNL1        0.0273
     24 H           3.3030   -2.4735    0.0000 H       1  UNL1        0.0271
     25 H           4.0430   -2.4735    0.0000 H       1  UNL1        0.0271
     26 H           3.5782   -3.1224    0.0000 H       1  UNL1        0.0271
     27 H           4.4127   -2.9147    0.0000 H       1  UNL1        0.0271
     28 H           1.5188   -1.7651    0.0000 H       1  UNL1        0.0271
     29 H           1.8068   -2.7451    0.0000 H       1  UNL1        0.0271
     30 H           3.4609    1.3577    0.0000 H       1  UNL1        0.0364
     31 H           3.0624    0.6674    0.0000 H       1  UNL1        0.0364
     32 H           5.0760    2.5851    0.0000 H       1  UNL1        0.1449
     33 H           4.0021    2.5851    0.0000 H       1  UNL1        0.1449
@<TRIPOS>BOND
     1     1    14    2
     2     2    14   am
     3     2    32    1
     4     2    33    1
     5     3     7    1
     6     3     8    1
     7     3     9    1
     8     3    13    1
     9     4     7    1
    10     4    10    1
    11     4    11    1
    12     4    15    1
    13     5     8    1
    14     5    10    1
    15     5    12    1
    16     5    16    1
    17     6     9    1
    18     6    11    1
    19     6    12    1
    20     6    17    1
    21     7    18    1
    22     7    19    1
    23     8    20    1
    24     8    21    1
    25     9    22    1
    26     9    23    1
    27    10    24    1
    28    10    25    1
    29    11    26    1
    30    11    27    1
    31    12    28    1
    32    12    29    1
    33    13    14    1
    34    13    30    1
    35    13    31    1
