@<TRIPOS>MOLECULE
IMPHY006276
 78 82 0 0 0
SMALL
GASTEIGER

@<TRIPOS>ATOM
      1 O          11.3900    1.4741    0.0000 O.3     1  UNL1       -0.3876
      2 O          10.5105   -2.0226    0.0000 O.3     1  UNL1       -0.3911
      3 O          13.6121   -1.9960    0.0000 O.3     1  UNL1       -0.3918
      4 O           6.0010    2.5472    0.0000 O.3     1  UNL1       -0.3477
      5 O           4.2690    2.5472    0.0000 O.3     1  UNL1       -0.3456
      6 O           4.2690   -0.4528    0.0000 O.3     1  UNL1       -0.3890
      7 O           2.5369    0.5472    0.0000 O.3     1  UNL1       -0.3867
      8 C          11.3823   -0.5259    0.0000 C.3     1  UNL1        0.0280
      9 C          11.3862    0.4741    0.0000 C.3     1  UNL1        0.0775
     10 C          10.5221    0.9774    0.0000 C.3     1  UNL1       -0.0044
     11 C           9.6541    0.4808    0.0000 C.3     1  UNL1       -0.0239
     12 C          12.3274   -0.8343    0.0000 C.3     1  UNL1       -0.0048
     13 C          10.5144   -1.0226    0.0000 C.3     1  UNL1        0.0638
     14 C           8.7461    0.9911    0.0000 C.3     1  UNL1       -0.0077
     15 C          12.3336    0.7752    0.0000 C.3     1  UNL1       -0.0228
     16 C           9.6503   -0.5192    0.0000 C.3     1  UNL1       -0.0223
     17 C          12.9141   -0.0318    0.0000 C.3     1  UNL1       -0.0446
     18 C          10.5422    2.0188    0.0000 C.3     1  UNL1       -0.0287
     19 C          11.3785   -1.5259    0.0000 C.3     1  UNL1       -0.0542
     20 C           8.7421    2.0327    0.0000 C.2     1  UNL1       -0.0648
     21 C           7.8171    0.4306    0.0000 C.3     1  UNL1       -0.0413
     22 C          12.6344   -1.7860    0.0000 C.3     1  UNL1        0.0559
     23 C           9.6462    2.5501    0.0000 C.2     1  UNL1       -0.0838
     24 C           8.7500   -0.0089    0.0000 C.3     1  UNL1       -0.0556
     25 C           7.8088    2.5860    0.0000 C.3     1  UNL1       -0.0047
     26 C           6.8712    0.9622    0.0000 C.3     1  UNL1       -0.0254
     27 C           6.8671    2.0472    0.0000 C.3     1  UNL1        0.0654
     28 C          11.9636   -2.5277    0.0000 C.3     1  UNL1       -0.0387
     29 C           5.1350    2.0472    0.0000 C.3     1  UNL1        0.1624
     30 C           5.1350    1.0472    0.0000 C.3     1  UNL1        0.0270
     31 C           4.2690    0.5472    0.0000 C.3     1  UNL1        0.0881
     32 C           3.4030    2.0472    0.0000 C.3     1  UNL1        0.0871
     33 C           3.4030    1.0472    0.0000 C.3     1  UNL1        0.1070
     34 C           2.5369    2.5472    0.0000 C.3     1  UNL1       -0.0361
     35 H          11.2631    1.3939    0.0000 H       1  UNL1        0.0335
     36 H          10.3886    0.0529    0.0000 H       1  UNL1        0.0314
     37 H          13.1665   -0.9694    0.0000 H       1  UNL1        0.0333
     38 H           9.7766   -1.4447    0.0000 H       1  UNL1        0.0600
     39 H          12.8721    1.0823    0.0000 H       1  UNL1        0.0293
     40 H          12.0847    1.3430    0.0000 H       1  UNL1        0.0293
     41 H           9.0401   -0.4092    0.0000 H       1  UNL1        0.0293
     42 H           9.4360   -1.1010    0.0000 H       1  UNL1        0.0293
     43 H          13.3733   -0.4483    0.0000 H       1  UNL1        0.0270
     44 H          13.3765    0.3811    0.0000 H       1  UNL1        0.0270
     45 H          11.1509    1.9010    0.0000 H       1  UNL1        0.0311
     46 H          10.7624    2.5984    0.0000 H       1  UNL1        0.0311
     47 H          10.7585   -1.5235    0.0000 H       1  UNL1        0.0237
     48 H          11.3761   -2.1459    0.0000 H       1  UNL1        0.0237
     49 H          11.9985   -1.5283    0.0000 H       1  UNL1        0.0237
     50 H           7.4253   -0.0499    0.0000 H       1  UNL1        0.0274
     51 H           8.2235   -0.0376    0.0000 H       1  UNL1        0.0274
     52 H          12.8953   -2.5950    0.0000 H       1  UNL1        0.0593
     53 H           9.6509    3.1700    0.0000 H       1  UNL1        0.0572
     54 H          11.9282    1.7820    0.0000 H       1  UNL1        0.2102
     55 H           8.1299   -0.0113    0.0000 H       1  UNL1        0.0238
     56 H           8.7523   -0.6289    0.0000 H       1  UNL1        0.0238
     57 H           9.3699   -0.0065    0.0000 H       1  UNL1        0.0238
     58 H           8.2116    3.0574    0.0000 H       1  UNL1        0.0335
     59 H           7.4133    3.0636    0.0000 H       1  UNL1        0.0335
     60 H           6.2600    1.0659    0.0000 H       1  UNL1        0.0290
     61 H           6.6644    0.3777    0.0000 H       1  UNL1        0.0290
     62 H           6.8687    2.8972    0.0000 H       1  UNL1        0.0600
     63 H           9.9724   -2.3305    0.0000 H       1  UNL1        0.2098
     64 H          11.5038   -2.1119    0.0000 H       1  UNL1        0.0255
     65 H          11.5478   -2.9876    0.0000 H       1  UNL1        0.0255
     66 H          12.4235   -2.9436    0.0000 H       1  UNL1        0.0255
     67 H          13.8024   -2.5860    0.0000 H       1  UNL1        0.2098
     68 H           5.1350    2.8972    0.0000 H       1  UNL1        0.0910
     69 H           5.3471    0.4646    0.0000 H       1  UNL1        0.0340
     70 H           5.7456    1.1548    0.0000 H       1  UNL1        0.0340
     71 H           5.0051    0.1222    0.0000 H       1  UNL1        0.0621
     72 H           3.4030    2.8972    0.0000 H       1  UNL1        0.0621
     73 H           3.4030    0.1972    0.0000 H       1  UNL1        0.0645
     74 H           2.8469    3.0841    0.0000 H       1  UNL1        0.0255
     75 H           2.0000    2.8572    0.0000 H       1  UNL1        0.0255
     76 H           2.2269    2.0102    0.0000 H       1  UNL1        0.0255
     77 H           3.7320   -0.7628    0.0000 H       1  UNL1        0.2099
     78 H           2.0000    0.8572    0.0000 H       1  UNL1        0.2100
@<TRIPOS>BOND
     1     1     9    1
     2     1    54    1
     3     2    13    1
     4     2    63    1
     5     3    22    1
     6     3    67    1
     7     4    27    1
     8     4    29    1
     9     5    29    1
    10     5    32    1
    11     6    31    1
    12     6    77    1
    13     7    33    1
    14     7    78    1
    15     8     9    1
    16     8    12    1
    17     8    13    1
    18     8    19    1
    19     9    10    1
    20     9    15    1
    21    10    11    1
    22    10    18    1
    23    10    35    1
    24    11    14    1
    25    11    16    1
    26    11    36    1
    27    12    17    1
    28    12    22    1
    29    12    37    1
    30    13    16    1
    31    13    38    1
    32    14    20    1
    33    14    21    1
    34    14    24    1
    35    15    17    1
    36    15    39    1
    37    15    40    1
    38    16    41    1
    39    16    42    1
    40    17    43    1
    41    17    44    1
    42    18    23    1
    43    18    45    1
    44    18    46    1
    45    19    47    1
    46    19    48    1
    47    19    49    1
    48    20    23    2
    49    20    25    1
    50    21    26    1
    51    21    50    1
    52    21    51    1
    53    22    28    1
    54    22    52    1
    55    23    53    1
    56    24    55    1
    57    24    56    1
    58    24    57    1
    59    25    27    1
    60    25    58    1
    61    25    59    1
    62    26    27    1
    63    26    60    1
    64    26    61    1
    65    27    62    1
    66    28    64    1
    67    28    65    1
    68    28    66    1
    69    29    30    1
    70    29    68    1
    71    30    31    1
    72    30    69    1
    73    30    70    1
    74    31    33    1
    75    31    71    1
    76    32    33    1
    77    32    34    1
    78    32    72    1
    79    33    73    1
    80    34    74    1
    81    34    75    1
    82    34    76    1
