@<TRIPOS>MOLECULE
IMPHY015365
 44 43 0 0 0
SMALL
GASTEIGER

@<TRIPOS>ATOM
      1 C           7.1962    0.2500    0.0000 C.3     1  UNL1       -0.0436
      2 C           8.0622    0.7500    0.0000 C.3     1  UNL1       -0.0479
      3 C           8.9282    0.2500    0.0000 C.3     1  UNL1       -0.0436
      4 C           6.3301    0.7500    0.0000 C.3     1  UNL1       -0.0505
      5 C           9.7942    0.7500    0.0000 C.3     1  UNL1       -0.0507
      6 C           5.4641    0.2500    0.0000 C.3     1  UNL1       -0.0528
      7 C           7.1962   -0.7500    0.0000 C.3     1  UNL1       -0.0624
      8 C           4.5981    0.7500    0.0000 C.3     1  UNL1       -0.0531
      9 C           8.9282   -0.7500    0.0000 C.3     1  UNL1       -0.0624
     10 C          10.6603    0.2500    0.0000 C.3     1  UNL1       -0.0557
     11 C           3.7320    0.2500    0.0000 C.3     1  UNL1       -0.0533
     12 C           2.8660    0.7500    0.0000 C.3     1  UNL1       -0.0559
     13 C          11.5263    0.7500    0.0000 C.3     1  UNL1       -0.0653
     14 C           2.0000    0.2500    0.0000 C.3     1  UNL1       -0.0653
     15 H           6.6592   -0.0600    0.0000 H       1  UNL1        0.0298
     16 H           8.4607    1.2250    0.0000 H       1  UNL1        0.0270
     17 H           7.6636    1.2250    0.0000 H       1  UNL1        0.0270
     18 H           9.4651   -0.0600    0.0000 H       1  UNL1        0.0298
     19 H           6.7287    1.2250    0.0000 H       1  UNL1        0.0268
     20 H           5.9316    1.2250    0.0000 H       1  UNL1        0.0268
     21 H          10.1928    1.2250    0.0000 H       1  UNL1        0.0268
     22 H           9.3957    1.2250    0.0000 H       1  UNL1        0.0268
     23 H           5.0656   -0.2249    0.0000 H       1  UNL1        0.0265
     24 H           5.8626   -0.2249    0.0000 H       1  UNL1        0.0265
     25 H           6.5762   -0.7500    0.0000 H       1  UNL1        0.0232
     26 H           7.1962   -1.3700    0.0000 H       1  UNL1        0.0232
     27 H           7.8162   -0.7500    0.0000 H       1  UNL1        0.0232
     28 H           4.9966    1.2250    0.0000 H       1  UNL1        0.0265
     29 H           4.1996    1.2250    0.0000 H       1  UNL1        0.0265
     30 H           8.3082   -0.7500    0.0000 H       1  UNL1        0.0232
     31 H           8.9282   -1.3700    0.0000 H       1  UNL1        0.0232
     32 H           9.5482   -0.7500    0.0000 H       1  UNL1        0.0232
     33 H          10.2617   -0.2249    0.0000 H       1  UNL1        0.0263
     34 H          11.0588   -0.2249    0.0000 H       1  UNL1        0.0263
     35 H           3.3335   -0.2249    0.0000 H       1  UNL1        0.0265
     36 H           4.1306   -0.2249    0.0000 H       1  UNL1        0.0265
     37 H           3.2646    1.2250    0.0000 H       1  UNL1        0.0263
     38 H           2.4675    1.2250    0.0000 H       1  UNL1        0.0263
     39 H          11.8363    0.2131    0.0000 H       1  UNL1        0.0230
     40 H          12.0632    1.0600    0.0000 H       1  UNL1        0.0230
     41 H          11.2163    1.2869    0.0000 H       1  UNL1        0.0230
     42 H           1.6900    0.7869    0.0000 H       1  UNL1        0.0230
     43 H           1.4631   -0.0600    0.0000 H       1  UNL1        0.0230
     44 H           2.3100   -0.2869    0.0000 H       1  UNL1        0.0230
@<TRIPOS>BOND
     1     1     2    1
     2     1     4    1
     3     1     7    1
     4     1    15    1
     5     2     3    1
     6     2    16    1
     7     2    17    1
     8     3     5    1
     9     3     9    1
    10     3    18    1
    11     4     6    1
    12     4    19    1
    13     4    20    1
    14     5    10    1
    15     5    21    1
    16     5    22    1
    17     6     8    1
    18     6    23    1
    19     6    24    1
    20     7    25    1
    21     7    26    1
    22     7    27    1
    23     8    11    1
    24     8    28    1
    25     8    29    1
    26     9    30    1
    27     9    31    1
    28     9    32    1
    29    10    13    1
    30    10    33    1
    31    10    34    1
    32    11    12    1
    33    11    35    1
    34    11    36    1
    35    12    14    1
    36    12    37    1
    37    12    38    1
    38    13    39    1
    39    13    40    1
    40    13    41    1
    41    14    42    1
    42    14    43    1
    43    14    44    1
