@<TRIPOS>MOLECULE
IMPHY005611
 51 52 0 0 0
SMALL
GASTEIGER

@<TRIPOS>ATOM
      1 O           5.6714   -0.8003    0.0000 O.3     1  UNL1       -0.4562
      2 O           7.0727   -1.8183    0.0000 O.2     1  UNL1       -0.2505
      3 O           8.5193    1.2688    0.0000 O.2     1  UNL1       -0.2922
      4 C           5.3858   -3.5174    0.0000 C.3     1  UNL1       -0.0144
      5 C           4.5768   -2.9296    0.0000 C.3     1  UNL1       -0.0033
      6 C           5.4904   -2.5228    0.0000 C.3     1  UNL1        0.0688
      7 C           4.7981   -4.3264    0.0000 C.3     1  UNL1       -0.0585
      8 C           6.3804   -3.6219    0.0000 C.3     1  UNL1       -0.0585
      9 C           3.5823   -2.8250    0.0000 C.2     1  UNL1       -0.0809
     10 C           6.0782   -1.7138    0.0000 C.2     1  UNL1        0.3119
     11 C           2.9945   -3.6340    0.0000 C.2     1  UNL1       -0.0793
     12 C           6.2592    0.0088    0.0000 C.3     1  UNL1        0.1315
     13 C           2.0000   -3.5295    0.0000 C.3     1  UNL1       -0.0440
     14 C           3.4013   -4.5476    0.0000 C.3     1  UNL1       -0.0440
     15 C           7.2592    0.0088    0.0000 C.3     1  UNL1        0.0512
     16 C           5.9502    0.9598    0.0000 C.2     1  UNL1       -0.0255
     17 C           6.7592    1.5476    0.0000 C.2     1  UNL1        0.0013
     18 C           7.5682    0.9598    0.0000 C.2     1  UNL1        0.1634
     19 C           4.9991    1.2688    0.0000 C.3     1  UNL1       -0.0397
     20 C           6.7592    2.5476    0.0000 C.3     1  UNL1       -0.0061
     21 C           7.6252    3.0476    0.0000 C.2     1  UNL1       -0.0838
     22 C           7.6252    4.0476    0.0000 C.2     1  UNL1       -0.0907
     23 C           6.7592    4.5476    0.0000 C.3     1  UNL1       -0.0468
     24 H           4.4798   -2.3172    0.0000 H       1  UNL1        0.0356
     25 H           6.0692   -2.7450    0.0000 H       1  UNL1        0.0425
     26 H           4.2965   -3.9619    0.0000 H       1  UNL1        0.0235
     27 H           4.4336   -4.8280    0.0000 H       1  UNL1        0.0235
     28 H           5.2996   -4.6908    0.0000 H       1  UNL1        0.0235
     29 H           6.3156   -4.2385    0.0000 H       1  UNL1        0.0235
     30 H           6.9970   -3.6867    0.0000 H       1  UNL1        0.0235
     31 H           6.4452   -3.0053    0.0000 H       1  UNL1        0.0235
     32 H           3.3301   -2.2586    0.0000 H       1  UNL1        0.0575
     33 H           5.6468    0.1057    0.0000 H       1  UNL1        0.0786
     34 H           2.0648   -2.9129    0.0000 H       1  UNL1        0.0274
     35 H           1.3834   -3.4647    0.0000 H       1  UNL1        0.0274
     36 H           1.9352   -4.1461    0.0000 H       1  UNL1        0.0274
     37 H           2.8349   -4.7998    0.0000 H       1  UNL1        0.0274
     38 H           3.6534   -5.1140    0.0000 H       1  UNL1        0.0274
     39 H           3.9677   -4.2954    0.0000 H       1  UNL1        0.0274
     40 H           7.1944   -0.6078    0.0000 H       1  UNL1        0.0385
     41 H           7.8657   -0.1202    0.0000 H       1  UNL1        0.0385
     42 H           5.1907    1.8585    0.0000 H       1  UNL1        0.0276
     43 H           4.4095    1.4604    0.0000 H       1  UNL1        0.0276
     44 H           4.8075    0.6792    0.0000 H       1  UNL1        0.0276
     45 H           6.5472    3.1302    0.0000 H       1  UNL1        0.0357
     46 H           6.1486    2.4399    0.0000 H       1  UNL1        0.0357
     47 H           8.1622    2.7376    0.0000 H       1  UNL1        0.0572
     48 H           8.1622    4.3576    0.0000 H       1  UNL1        0.0566
     49 H           7.0692    5.0845    0.0000 H       1  UNL1        0.0272
     50 H           6.2223    4.8576    0.0000 H       1  UNL1        0.0272
     51 H           6.4492    4.0107    0.0000 H       1  UNL1        0.0272
@<TRIPOS>BOND
     1     1    10    1
     2    12     1    1
     3     2    10    2
     4     3    18    2
     5     4     5    1
     6     4     6    1
     7     4     7    1
     8     4     8    1
     9     5     6    1
    10     5     9    1
    11     5    24    1
    12     6    10    1
    13     6    25    1
    14     7    26    1
    15     7    27    1
    16     7    28    1
    17     8    29    1
    18     8    30    1
    19     8    31    1
    20     9    11    2
    21     9    32    1
    22    11    13    1
    23    11    14    1
    24    12    15    1
    25    12    16    1
    26    12    33    1
    27    13    34    1
    28    13    35    1
    29    13    36    1
    30    14    37    1
    31    14    38    1
    32    14    39    1
    33    15    18    1
    34    15    40    1
    35    15    41    1
    36    16    17    2
    37    16    19    1
    38    17    18    1
    39    17    20    1
    40    19    42    1
    41    19    43    1
    42    19    44    1
    43    20    21    1
    44    20    45    1
    45    20    46    1
    46    21    22    2
    47    21    47    1
    48    22    23    1
    49    22    48    1
    50    23    49    1
    51    23    50    1
    52    23    51    1
