@<TRIPOS>MOLECULE
IMPHY009220
 45 47 0 0 0
SMALL
GASTEIGER

@<TRIPOS>ATOM
      1 O           4.2690   -1.3450    0.0000 O.3     1  UNL1       -0.3313
      2 O           6.0010   -1.3450    0.0000 O.3     1  UNL1       -0.4608
      3 O           4.2690   -4.3450    0.0000 O.3     1  UNL1       -0.3864
      4 O           2.5369   -3.3450    0.0000 O.3     1  UNL1       -0.3865
      5 O           6.0010   -3.3450    0.0000 O.3     1  UNL1       -0.3829
      6 O           2.5369   -0.3450    0.0000 O.3     1  UNL1       -0.3924
      7 O           5.1350    3.1550    0.0000 O.3     1  UNL1       -0.4532
      8 O           4.2690    4.6550    0.0000 O.2     1  UNL1       -0.2456
      9 C           4.2690   -3.3450    0.0000 C.3     1  UNL1        0.1152
     10 C           3.4030   -2.8450    0.0000 C.3     1  UNL1        0.1120
     11 C           5.1350   -2.8450    0.0000 C.3     1  UNL1        0.1454
     12 C           3.4030   -1.8450    0.0000 C.3     1  UNL1        0.1140
     13 C           5.1350   -1.8450    0.0000 C.3     1  UNL1        0.2308
     14 C           2.5369   -1.3450    0.0000 C.3     1  UNL1        0.0731
     15 C           6.0010   -0.3450    0.0000 C.ar    1  UNL1        0.1240
     16 C           6.0010    2.6550    0.0000 C.3     1  UNL1        0.1317
     17 C           6.0010    1.6550    0.0000 C.ar    1  UNL1       -0.0067
     18 C           6.8671    0.1550    0.0000 C.ar    1  UNL1       -0.0195
     19 C           5.1350    0.1550    0.0000 C.ar    1  UNL1       -0.0195
     20 C           6.8671    3.1550    0.0000 C.3     1  UNL1        0.0073
     21 C           6.8671    1.1550    0.0000 C.ar    1  UNL1       -0.0516
     22 C           5.1350    1.1550    0.0000 C.ar    1  UNL1       -0.0516
     23 C           6.8671    4.1550    0.0000 C.2     1  UNL1       -0.0734
     24 C           6.0010    4.6550    0.0000 C.2     1  UNL1        0.0187
     25 C           5.1350    4.1550    0.0000 C.2     1  UNL1        0.3322
     26 H           4.8059   -3.6550    0.0000 H       1  UNL1        0.0648
     27 H           3.4030   -3.4650    0.0000 H       1  UNL1        0.0647
     28 H           5.6720   -2.5350    0.0000 H       1  UNL1        0.0683
     29 H           3.4030   -1.2250    0.0000 H       1  UNL1        0.0647
     30 H           5.1350   -1.2250    0.0000 H       1  UNL1        0.1084
     31 H           1.9264   -1.2373    0.0000 H       1  UNL1        0.0584
     32 H           2.3249   -1.9276    0.0000 H       1  UNL1        0.0584
     33 H           3.7320   -4.6550    0.0000 H       1  UNL1        0.2100
     34 H           2.0000   -3.0350    0.0000 H       1  UNL1        0.2100
     35 H           6.5380   -3.0350    0.0000 H       1  UNL1        0.2102
     36 H           6.5380    2.3450    0.0000 H       1  UNL1        0.0788
     37 H           2.0000   -0.0350    0.0000 H       1  UNL1        0.2095
     38 H           7.4040   -0.1550    0.0000 H       1  UNL1        0.0654
     39 H           4.5981   -0.1550    0.0000 H       1  UNL1        0.0654
     40 H           7.0791    2.5724    0.0000 H       1  UNL1        0.0347
     41 H           7.4776    3.2627    0.0000 H       1  UNL1        0.0347
     42 H           7.4040    1.4650    0.0000 H       1  UNL1        0.0623
     43 H           4.5981    1.4650    0.0000 H       1  UNL1        0.0623
     44 H           7.4040    4.4650    0.0000 H       1  UNL1        0.0575
     45 H           6.0010    5.2750    0.0000 H       1  UNL1        0.0686
@<TRIPOS>BOND
     1     1    12    1
     2     1    13    1
     3    13     2    1
     4     2    15    1
     5     9     3    1
     6     3    33    1
     7    10     4    1
     8     4    34    1
     9    11     5    1
    10     5    35    1
    11     6    14    1
    12     6    37    1
    13     7    16    1
    14     7    25    1
    15     8    25    2
    16     9    10    1
    17     9    11    1
    18     9    26    1
    19    10    12    1
    20    10    27    1
    21    11    13    1
    22    11    28    1
    23    12    14    1
    24    12    29    1
    25    13    30    1
    26    14    31    1
    27    14    32    1
    28    15    18   ar
    29    15    19   ar
    30    16    17    1
    31    16    20    1
    32    16    36    1
    33    17    21   ar
    34    17    22   ar
    35    18    21   ar
    36    18    38    1
    37    19    22   ar
    38    19    39    1
    39    20    23    1
    40    20    40    1
    41    20    41    1
    42    21    42    1
    43    22    43    1
    44    23    24    2
    45    23    44    1
    46    24    25    1
    47    24    45    1
