@<TRIPOS>MOLECULE
IMPHY010280
 25 26 0 0 0
SMALL
GASTEIGER

@<TRIPOS>ATOM
      1 O           2.1916    1.0937    0.0000 O.3     1  UNL1       -0.3947
      2 N           4.4298   -1.3743    0.0000 N.3     1  UNL1       -0.2990
      3 C           4.4298   -0.3743    0.0000 C.3     1  UNL1        0.0154
      4 C           3.4788   -0.0653    0.0000 C.3     1  UNL1       -0.0011
      5 C           5.3760   -0.0696    0.0000 C.3     1  UNL1       -0.0358
      6 C           2.8910   -0.8743    0.0000 C.3     1  UNL1       -0.0338
      7 C           3.4788   -1.6833    0.0000 C.3     1  UNL1       -0.0005
      8 C           5.3760   -1.6790    0.0000 C.3     1  UNL1       -0.0008
      9 C           5.9596   -0.8743    0.0000 C.3     1  UNL1       -0.0388
     10 C           3.1697    0.8858    0.0000 C.3     1  UNL1        0.0485
     11 H           4.4309    0.4757    0.0000 H       1  UNL1        0.0466
     12 H           3.9172    0.3731    0.0000 H       1  UNL1        0.0338
     13 H           5.9134    0.2396    0.0000 H       1  UNL1        0.0281
     14 H           5.1250    0.4973    0.0000 H       1  UNL1        0.0281
     15 H           2.4302   -0.4595    0.0000 H       1  UNL1        0.0281
     16 H           2.4302   -1.2892    0.0000 H       1  UNL1        0.0281
     17 H           2.9418   -1.9933    0.0000 H       1  UNL1        0.0427
     18 H           3.7309   -2.2497    0.0000 H       1  UNL1        0.0427
     19 H           5.1250   -2.2460    0.0000 H       1  UNL1        0.0427
     20 H           5.9134   -1.9883    0.0000 H       1  UNL1        0.0427
     21 H           6.4205   -1.2890    0.0000 H       1  UNL1        0.0278
     22 H           6.4205   -0.4596    0.0000 H       1  UNL1        0.0278
     23 H           3.7837    0.9720    0.0000 H       1  UNL1        0.0560
     24 H           3.1914    1.5054    0.0000 H       1  UNL1        0.0560
     25 H           2.0000    1.6833    0.0000 H       1  UNL1        0.2094
@<TRIPOS>BOND
     1     1    10    1
     2     1    25    1
     3     2     3    1
     4     2     7    1
     5     2     8    1
     6     3     4    1
     7     3     5    1
     8     3    11    1
     9     4     6    1
    10     4    10    1
    11     4    12    1
    12     5     9    1
    13     5    13    1
    14     5    14    1
    15     6     7    1
    16     6    15    1
    17     6    16    1
    18     7    17    1
    19     7    18    1
    20     8     9    1
    21     8    19    1
    22     8    20    1
    23     9    21    1
    24     9    22    1
    25    10    23    1
    26    10    24    1
