@<TRIPOS>MOLECULE
IMPHY005869
 43 44 0 0 0
SMALL
GASTEIGER

@<TRIPOS>ATOM
      1 O           5.1350   -2.2162    0.0000 O.2     1  UNL1       -0.4265
      2 O           5.9378    2.3368    0.0000 O.2     1  UNL1       -0.4265
      3 O           2.5369   -0.7162    0.0000 O.3     1  UNL1       -0.5059
      4 O           2.9834    1.8159    0.0000 O.3     1  UNL1       -0.5059
      5 O           6.0010   -0.7162    0.0000 O.2     1  UNL1       -0.2447
      6 O           6.2386    0.6311    0.0000 O.2     1  UNL1       -0.2447
      7 C           4.2690    0.2838    0.0000 C.3     1  UNL1        0.0182
      8 C           4.6110    1.2235    0.0000 C.ar    1  UNL1        0.0832
      9 C           4.2690   -0.7162    0.0000 C.ar    1  UNL1        0.0832
     10 C           3.9682    1.9895    0.0000 C.ar    1  UNL1        0.1332
     11 C           3.4030   -1.2162    0.0000 C.ar    1  UNL1        0.1332
     12 C           3.4030   -2.2162    0.0000 C.ar    1  UNL1        0.0295
     13 C           4.3102    2.9292    0.0000 C.ar    1  UNL1        0.0295
     14 C           5.2950    3.1029    0.0000 C.ar    1  UNL1        0.1152
     15 C           4.2690   -2.7162    0.0000 C.ar    1  UNL1        0.1152
     16 C           5.5958    1.3971    0.0000 C.ar    1  UNL1        0.3440
     17 C           5.1350   -1.2162    0.0000 C.ar    1  UNL1        0.3440
     18 C           5.6371    4.0426    0.0000 C.3     1  UNL1        0.0032
     19 C           4.2690   -3.7162    0.0000 C.3     1  UNL1        0.0032
     20 C           2.5369   -2.7162    0.0000 C.3     1  UNL1       -0.0331
     21 C           3.6674    3.6953    0.0000 C.3     1  UNL1       -0.0331
     22 C           5.1350   -4.2162    0.0000 C.3     1  UNL1       -0.0584
     23 C           6.6219    4.2162    0.0000 C.3     1  UNL1       -0.0584
     24 H           3.8180    0.7093    0.0000 H       1  UNL1        0.0368
     25 H           4.8796    0.1761    0.0000 H       1  UNL1        0.0368
     26 H           3.6584   -3.6086    0.0000 H       1  UNL1        0.0341
     27 H           4.0569   -4.2988    0.0000 H       1  UNL1        0.0341
     28 H           5.6371    4.6626    0.0000 H       1  UNL1        0.0341
     29 H           5.0265    4.1502    0.0000 H       1  UNL1        0.0341
     30 H           2.2269   -2.1793    0.0000 H       1  UNL1        0.0280
     31 H           2.0000   -3.0262    0.0000 H       1  UNL1        0.0280
     32 H           2.8469   -3.2532    0.0000 H       1  UNL1        0.0280
     33 H           4.1424    4.0938    0.0000 H       1  UNL1        0.0280
     34 H           3.2689    4.1702    0.0000 H       1  UNL1        0.0280
     35 H           3.1925    3.2967    0.0000 H       1  UNL1        0.0280
     36 H           6.7295    3.6056    0.0000 H       1  UNL1        0.0234
     37 H           7.2325    4.3239    0.0000 H       1  UNL1        0.0234
     38 H           4.8250   -4.7532    0.0000 H       1  UNL1        0.0234
     39 H           5.6720   -4.5262    0.0000 H       1  UNL1        0.0234
     40 H           5.4450   -3.6793    0.0000 H       1  UNL1        0.0234
     41 H           6.5142    4.8268    0.0000 H       1  UNL1        0.0234
     42 H           2.0000   -1.0262    0.0000 H       1  UNL1        0.2922
     43 H           2.5849    2.2908    0.0000 H       1  UNL1        0.2922
@<TRIPOS>BOND
     1     1    15   ar
     2     1    17   ar
     3     2    14   ar
     4     2    16   ar
     5     3    11    1
     6     3    42    1
     7     4    10    1
     8     4    43    1
     9     5    17    2
    10     6    16    2
    11     7     8    1
    12     7     9    1
    13     7    24    1
    14     7    25    1
    15     8    10   ar
    16     8    16   ar
    17     9    11   ar
    18     9    17   ar
    19    10    13   ar
    20    11    12   ar
    21    12    15   ar
    22    12    20    1
    23    13    14   ar
    24    13    21    1
    25    14    18    1
    26    15    19    1
    27    18    23    1
    28    18    28    1
    29    18    29    1
    30    19    22    1
    31    19    26    1
    32    19    27    1
    33    20    30    1
    34    20    31    1
    35    20    32    1
    36    21    33    1
    37    21    34    1
    38    21    35    1
    39    22    38    1
    40    22    39    1
    41    22    40    1
    42    23    36    1
    43    23    37    1
    44    23    41    1
