@<TRIPOS>MOLECULE
IMPHY009051
 67 73 0 0 0
SMALL
GASTEIGER

@<TRIPOS>ATOM
      1 O           5.9424    1.4834    0.0000 O.3     1  UNL1       -0.4890
      2 O          11.2835    2.1965    0.0000 O.3     1  UNL1       -0.4929
      3 O           2.9755   -2.3456    0.0000 O.3     1  UNL1       -0.4930
      4 O          12.4385   -2.5540    0.0000 O.3     1  UNL1       -0.4930
      5 N           7.5386   -0.6266    0.0000 N.ar    1  UNL1       -0.1877
      6 N           5.0856   -1.7441    0.0000 N.ar    1  UNL1       -0.3464
      7 N          10.7433   -1.1435    0.0000 N.ar    1  UNL1       -0.3496
      8 N           8.8917    0.9115    0.0000 N.ar    1  UNL1       -0.2475
      9 C           8.5607   -0.8275    0.0000 C.3     1  UNL1        0.2045
     10 C           8.8902   -1.8156    0.0000 C.3     1  UNL1        0.0164
     11 C           6.8695   -1.3698    0.0000 C.ar    1  UNL1        0.2087
     12 C           8.1932   -2.5897    0.0000 C.3     1  UNL1       -0.0370
     13 C           7.1760   -2.3653    0.0000 C.3     1  UNL1        0.0348
     14 C           5.8913   -1.1619    0.0000 C.ar    1  UNL1        0.1190
     15 C           9.2212   -0.0766    0.0000 C.ar    1  UNL1        0.1330
     16 C           5.5823   -0.2108    0.0000 C.ar    1  UNL1        0.0611
     17 C           7.2296    0.3244    0.0000 C.ar    1  UNL1        0.2146
     18 C          10.2433   -0.2775    0.0000 C.ar    1  UNL1        0.0792
     19 C           6.2514    0.5323    0.0000 C.ar    1  UNL1        0.1935
     20 C           4.5882   -0.2134    0.0000 C.ar    1  UNL1        0.0149
     21 C           4.2819   -1.1591    0.0000 C.ar    1  UNL1        0.0900
     22 C          10.9124    0.4657    0.0000 C.ar    1  UNL1        0.0526
     23 C          11.8259    0.0589    0.0000 C.ar    1  UNL1        0.0146
     24 C          11.7214   -0.9356    0.0000 C.ar    1  UNL1        0.0899
     25 C          10.6058    1.4612    0.0000 C.ar    1  UNL1        0.1478
     26 C           3.9066    0.5661    0.0000 C.ar    1  UNL1       -0.0517
     27 C           3.2727   -1.3908    0.0000 C.ar    1  UNL1        0.1439
     28 C           9.5887    1.6856    0.0000 C.ar    1  UNL1        0.0705
     29 C          12.5546   -1.5608    0.0000 C.ar    1  UNL1        0.1439
     30 C          12.7709    0.4972    0.0000 C.ar    1  UNL1       -0.0517
     31 C           2.8924    0.3578    0.0000 C.ar    1  UNL1       -0.0576
     32 C           2.5732   -0.6273    0.0000 C.ar    1  UNL1       -0.0179
     33 C          13.5094   -1.1444    0.0000 C.ar    1  UNL1       -0.0179
     34 C          13.6183   -0.1085    0.0000 C.ar    1  UNL1       -0.0576
     35 C           6.6116    2.2265    0.0000 C.3     1  UNL1        0.0791
     36 C          10.9855    3.1511    0.0000 C.3     1  UNL1        0.0789
     37 C           2.0000   -2.5657    0.0000 C.3     1  UNL1        0.0789
     38 C          13.2407   -3.1511    0.0000 C.3     1  UNL1        0.0789
     39 H           9.3938   -0.9962    0.0000 H       1  UNL1        0.1139
     40 H           9.2732   -2.3032    0.0000 H       1  UNL1        0.0334
     41 H           9.4361   -1.5217    0.0000 H       1  UNL1        0.0334
     42 H           7.9580   -3.1633    0.0000 H       1  UNL1        0.0273
     43 H           8.7182   -2.9196    0.0000 H       1  UNL1        0.0273
     44 H           6.5610   -2.4437    0.0000 H       1  UNL1        0.0373
     45 H           7.1480   -2.9846    0.0000 H       1  UNL1        0.0373
     46 H           7.6444    0.7852    0.0000 H       1  UNL1        0.1416
     47 H           5.0845   -2.3641    0.0000 H       1  UNL1        0.1662
     48 H          10.4911   -1.7099    0.0000 H       1  UNL1        0.1661
     49 H           4.1045    1.1537    0.0000 H       1  UNL1        0.0624
     50 H           9.3993    2.2760    0.0000 H       1  UNL1        0.0867
     51 H          12.8285    1.1146    0.0000 H       1  UNL1        0.0624
     52 H           2.4789    0.8198    0.0000 H       1  UNL1        0.0619
     53 H           1.9674   -0.7591    0.0000 H       1  UNL1        0.0655
     54 H          14.0096   -1.5108    0.0000 H       1  UNL1        0.0655
     55 H          14.1837    0.1459    0.0000 H       1  UNL1        0.0619
     56 H           7.0723    1.8117    0.0000 H       1  UNL1        0.0660
     57 H           7.0264    2.6873    0.0000 H       1  UNL1        0.0660
     58 H           6.1508    2.6414    0.0000 H       1  UNL1        0.0660
     59 H          11.5773    3.3359    0.0000 H       1  UNL1        0.0660
     60 H          10.8007    3.7429    0.0000 H       1  UNL1        0.0660
     61 H          10.3937    2.9663    0.0000 H       1  UNL1        0.0660
     62 H           1.8636   -1.9609    0.0000 H       1  UNL1        0.0660
     63 H           1.3952   -2.7021    0.0000 H       1  UNL1        0.0660
     64 H           2.1364   -3.1705    0.0000 H       1  UNL1        0.0660
     65 H          12.8705   -3.6484    0.0000 H       1  UNL1        0.0660
     66 H          13.7381   -3.5213    0.0000 H       1  UNL1        0.0660
     67 H          13.6109   -2.6538    0.0000 H       1  UNL1        0.0660
@<TRIPOS>UNITY_ATOM_ATTR
5 1
charge 1
@<TRIPOS>BOND
     1     1    19    1
     2     1    35    1
     3     2    25    1
     4     2    36    1
     5     3    27    1
     6     3    37    1
     7     4    29    1
     8     4    38    1
     9     5     9    1
    10     5    11   ar
    11     5    17   ar
    12     6    14   ar
    13     6    21   ar
    14     6    47    1
    15     7    18   ar
    16     7    24   ar
    17     7    48    1
    18     8    15   ar
    19     8    28   ar
    20     9    10    1
    21     9    15    1
    22     9    39    1
    23    10    12    1
    24    10    40    1
    25    10    41    1
    26    11    13    1
    27    11    14   ar
    28    12    13    1
    29    12    42    1
    30    12    43    1
    31    13    44    1
    32    13    45    1
    33    14    16   ar
    34    15    18   ar
    35    16    19   ar
    36    16    20   ar
    37    17    19   ar
    38    17    46    1
    39    18    22   ar
    40    20    21   ar
    41    20    26   ar
    42    21    27   ar
    43    22    23   ar
    44    22    25   ar
    45    23    24   ar
    46    23    30   ar
    47    24    29   ar
    48    25    28   ar
    49    26    31   ar
    50    26    49    1
    51    27    32   ar
    52    28    50    1
    53    29    33   ar
    54    30    34   ar
    55    30    51    1
    56    31    32   ar
    57    31    52    1
    58    32    53    1
    59    33    34   ar
    60    33    54    1
    61    34    55    1
    62    35    56    1
    63    35    57    1
    64    35    58    1
    65    36    59    1
    66    36    60    1
    67    36    61    1
    68    37    62    1
    69    37    63    1
    70    37    64    1
    71    38    65    1
    72    38    66    1
    73    38    67    1
