@<TRIPOS>MOLECULE
IMPHY007353
 119 126 0 0 0
SMALL
GASTEIGER

@<TRIPOS>ATOM
      1 O          18.3182    1.5438    0.0000 O.3     1  UNL1       -0.3876
      2 O          20.8423    0.0340    0.0000 O.3     1  UNL1       -0.3911
      3 O          12.9292    2.6169    0.0000 O.3     1  UNL1       -0.3480
      4 O          19.5591   -3.3344    0.0000 O.3     1  UNL1       -0.4571
      5 O          11.1972    2.6169    0.0000 O.3     1  UNL1       -0.3456
      6 O          21.3186   -3.6169    0.0000 O.2     1  UNL1       -0.2456
      7 O          11.1972   -0.3831    0.0000 O.3     1  UNL1       -0.3890
      8 O           9.4651    0.6169    0.0000 O.3     1  UNL1       -0.3429
      9 O           8.5991    2.1169    0.0000 O.3     1  UNL1       -0.3456
     10 O           6.0010    2.6169    0.0000 O.3     1  UNL1       -0.3429
     11 O           6.0010    0.6169    0.0000 O.3     1  UNL1       -0.3890
     12 O           5.1350    1.1169    0.0000 O.3     1  UNL1       -0.3456
     13 O           2.5369    2.6169    0.0000 O.3     1  UNL1       -0.3890
     14 O           2.5369    0.6169    0.0000 O.3     1  UNL1       -0.3867
     15 C          18.3144    0.5438    0.0000 C.3     1  UNL1        0.0775
     16 C          17.4503    1.0471    0.0000 C.3     1  UNL1       -0.0082
     17 C          16.5823    0.5504    0.0000 C.3     1  UNL1       -0.0299
     18 C          18.3105   -0.4562    0.0000 C.3     1  UNL1        0.0060
     19 C          15.6743    1.0608    0.0000 C.3     1  UNL1       -0.0259
     20 C          15.6703    2.1024    0.0000 C.3     1  UNL1       -0.0330
     21 C          19.2556   -0.7646    0.0000 C.3     1  UNL1        0.0179
     22 C          16.5785   -0.4496    0.0000 C.3     1  UNL1       -0.0488
     23 C          17.4426   -0.9529    0.0000 C.3     1  UNL1       -0.0441
     24 C          19.2618    0.8448    0.0000 C.3     1  UNL1        0.0035
     25 C          17.4704    2.0885    0.0000 C.3     1  UNL1       -0.0470
     26 C          19.8423    0.0379    0.0000 C.3     1  UNL1        0.0651
     27 C          16.5744    2.6197    0.0000 C.3     1  UNL1       -0.0493
     28 C          14.7453    0.5003    0.0000 C.3     1  UNL1       -0.0448
     29 C          18.3067   -1.4562    0.0000 C.3     1  UNL1       -0.0563
     30 C          14.7370    2.6557    0.0000 C.3     1  UNL1       -0.0232
     31 C          15.6782    0.0608    0.0000 C.3     1  UNL1       -0.0590
     32 C          13.7994    1.0319    0.0000 C.3     1  UNL1       -0.0260
     33 C          13.7953    2.1169    0.0000 C.3     1  UNL1        0.0620
     34 C          19.5626   -1.7163    0.0000 C.2     1  UNL1       -0.0198
     35 C          18.9731   -2.5241    0.0000 C.3     1  UNL1        0.1148
     36 C          20.5130   -2.0274    0.0000 C.2     1  UNL1        0.0253
     37 C          20.5108   -3.0274    0.0000 C.2     1  UNL1        0.3323
     38 C          12.0632    2.1169    0.0000 C.3     1  UNL1        0.1624
     39 C          12.0632    1.1169    0.0000 C.3     1  UNL1        0.0270
     40 C          11.1972    0.6169    0.0000 C.3     1  UNL1        0.0884
     41 C          10.3312    2.1169    0.0000 C.3     1  UNL1        0.0875
     42 C          10.3312    1.1169    0.0000 C.3     1  UNL1        0.1134
     43 C           9.4651    2.6169    0.0000 C.3     1  UNL1       -0.0361
     44 C           8.5991    1.1169    0.0000 C.3     1  UNL1        0.1626
     45 C           7.7331    0.6169    0.0000 C.3     1  UNL1        0.0270
     46 C           6.8671    1.1169    0.0000 C.3     1  UNL1        0.0884
     47 C           7.7331    2.6169    0.0000 C.3     1  UNL1        0.0875
     48 C           6.8671    2.1169    0.0000 C.3     1  UNL1        0.1134
     49 C           7.7331    3.6169    0.0000 C.3     1  UNL1       -0.0361
     50 C           5.1350    2.1169    0.0000 C.3     1  UNL1        0.1626
     51 C           4.2690    2.6169    0.0000 C.3     1  UNL1        0.0270
     52 C           3.4030    2.1169    0.0000 C.3     1  UNL1        0.0881
     53 C           4.2690    0.6169    0.0000 C.3     1  UNL1        0.0871
     54 C           3.4030    1.1169    0.0000 C.3     1  UNL1        0.1070
     55 C           4.2690   -0.3831    0.0000 C.3     1  UNL1       -0.0361
     56 H          18.1913    1.4635    0.0000 H       1  UNL1        0.0331
     57 H          17.3168    0.1226    0.0000 H       1  UNL1        0.0310
     58 H          15.6768    2.9524    0.0000 H       1  UNL1        0.0307
     59 H          19.8677   -0.8632    0.0000 H       1  UNL1        0.0378
     60 H          15.9683   -0.3395    0.0000 H       1  UNL1        0.0268
     61 H          16.3642   -1.0314    0.0000 H       1  UNL1        0.0268
     62 H          17.0422   -1.4263    0.0000 H       1  UNL1        0.0272
     63 H          17.8393   -1.4294    0.0000 H       1  UNL1        0.0272
     64 H          19.8003    1.1520    0.0000 H       1  UNL1        0.0318
     65 H          19.0129    1.4127    0.0000 H       1  UNL1        0.0318
     66 H          18.0791    1.9707    0.0000 H       1  UNL1        0.0269
     67 H          17.6906    2.6681    0.0000 H       1  UNL1        0.0269
     68 H          20.1261    0.5891    0.0000 H       1  UNL1        0.0600
     69 H          16.9771    3.0911    0.0000 H       1  UNL1        0.0268
     70 H          16.1789    3.0972    0.0000 H       1  UNL1        0.0268
     71 H          14.3535    0.0197    0.0000 H       1  UNL1        0.0271
     72 H          15.1517    0.0321    0.0000 H       1  UNL1        0.0271
     73 H          17.6867   -1.4538    0.0000 H       1  UNL1        0.0236
     74 H          18.3043   -2.0762    0.0000 H       1  UNL1        0.0236
     75 H          18.9267   -1.4586    0.0000 H       1  UNL1        0.0236
     76 H          15.1398    3.1271    0.0000 H       1  UNL1        0.0293
     77 H          14.3415    3.1332    0.0000 H       1  UNL1        0.0293
     78 H          15.0582    0.0584    0.0000 H       1  UNL1        0.0235
     79 H          15.6805   -0.5592    0.0000 H       1  UNL1        0.0235
     80 H          16.2981    0.0632    0.0000 H       1  UNL1        0.0235
     81 H          13.1882    1.1356    0.0000 H       1  UNL1        0.0290
     82 H          13.5926    0.4474    0.0000 H       1  UNL1        0.0290
     83 H          13.7965    2.7369    0.0000 H       1  UNL1        0.0597
     84 H          18.8564    1.8517    0.0000 H       1  UNL1        0.2102
     85 H          21.1543    0.5697    0.0000 H       1  UNL1        0.2098
     86 H          18.5132   -2.1082    0.0000 H       1  UNL1        0.0746
     87 H          18.5114   -2.9380    0.0000 H       1  UNL1        0.0746
     88 H          21.0153   -1.6640    0.0000 H       1  UNL1        0.0689
     89 H          12.6002    1.8069    0.0000 H       1  UNL1        0.0910
     90 H          12.2753    0.5343    0.0000 H       1  UNL1        0.0340
     91 H          12.6738    1.2245    0.0000 H       1  UNL1        0.0340
     92 H          11.7341    0.3069    0.0000 H       1  UNL1        0.0622
     93 H          10.3312    2.7369    0.0000 H       1  UNL1        0.0621
     94 H           9.7942    1.4269    0.0000 H       1  UNL1        0.0649
     95 H           9.7751    3.1538    0.0000 H       1  UNL1        0.0255
     96 H           8.9282    2.9269    0.0000 H       1  UNL1        0.0255
     97 H           9.1551    2.0799    0.0000 H       1  UNL1        0.0255
     98 H          11.7341   -0.6931    0.0000 H       1  UNL1        0.2099
     99 H           8.5991    0.4969    0.0000 H       1  UNL1        0.0910
    100 H           7.3346    0.1419    0.0000 H       1  UNL1        0.0340
    101 H           8.1316    0.1419    0.0000 H       1  UNL1        0.0340
    102 H           6.3301    1.4269    0.0000 H       1  UNL1        0.0622
    103 H           8.2700    2.9269    0.0000 H       1  UNL1        0.0621
    104 H           6.8671    2.7369    0.0000 H       1  UNL1        0.0649
    105 H           8.3531    3.6169    0.0000 H       1  UNL1        0.0255
    106 H           7.7331    4.2369    0.0000 H       1  UNL1        0.0255
    107 H           7.1131    3.6169    0.0000 H       1  UNL1        0.0255
    108 H           6.0010   -0.0031    0.0000 H       1  UNL1        0.2099
    109 H           5.1350    2.7369    0.0000 H       1  UNL1        0.0910
    110 H           4.6675    3.0918    0.0000 H       1  UNL1        0.0340
    111 H           3.8705    3.0918    0.0000 H       1  UNL1        0.0340
    112 H           3.4030    2.7369    0.0000 H       1  UNL1        0.0621
    113 H           4.8059    0.3069    0.0000 H       1  UNL1        0.0621
    114 H           2.8660    1.4269    0.0000 H       1  UNL1        0.0645
    115 H           3.6490   -0.3831    0.0000 H       1  UNL1        0.0255
    116 H           4.2690   -1.0031    0.0000 H       1  UNL1        0.0255
    117 H           4.8890   -0.3831    0.0000 H       1  UNL1        0.0255
    118 H           2.5369    3.2369    0.0000 H       1  UNL1        0.2099
    119 H           2.0000    0.9269    0.0000 H       1  UNL1        0.2100
@<TRIPOS>BOND
     1    15     1    1
     2     1    84    1
     3    26     2    1
     4     2    85    1
     5    33     3    1
     6    38     3    1
     7     4    35    1
     8     4    37    1
     9     5    38    1
    10     5    41    1
    11     6    37    2
    12    40     7    1
    13     7    98    1
    14    42     8    1
    15    44     8    1
    16     9    44    1
    17     9    47    1
    18    48    10    1
    19    50    10    1
    20    46    11    1
    21    11   108    1
    22    12    50    1
    23    12    53    1
    24    52    13    1
    25    13   118    1
    26    54    14    1
    27    14   119    1
    28    15    16    1
    29    15    18    1
    30    15    24    1
    31    16    17    1
    32    16    25    1
    33    16    56    1
    34    17    19    1
    35    17    22    1
    36    17    57    1
    37    18    21    1
    38    18    23    1
    39    18    29    1
    40    19    20    1
    41    19    28    1
    42    19    31    1
    43    20    27    1
    44    20    30    1
    45    20    58    1
    46    21    26    1
    47    21    34    1
    48    21    59    1
    49    22    23    1
    50    22    60    1
    51    22    61    1
    52    23    62    1
    53    23    63    1
    54    24    26    1
    55    24    64    1
    56    24    65    1
    57    25    27    1
    58    25    66    1
    59    25    67    1
    60    26    68    1
    61    27    69    1
    62    27    70    1
    63    28    32    1
    64    28    71    1
    65    28    72    1
    66    29    73    1
    67    29    74    1
    68    29    75    1
    69    30    33    1
    70    30    76    1
    71    30    77    1
    72    31    78    1
    73    31    79    1
    74    31    80    1
    75    32    33    1
    76    32    81    1
    77    32    82    1
    78    33    83    1
    79    34    35    1
    80    34    36    2
    81    35    86    1
    82    35    87    1
    83    36    37    1
    84    36    88    1
    85    38    39    1
    86    38    89    1
    87    39    40    1
    88    39    90    1
    89    39    91    1
    90    40    42    1
    91    40    92    1
    92    41    42    1
    93    41    43    1
    94    41    93    1
    95    42    94    1
    96    43    95    1
    97    43    96    1
    98    43    97    1
    99    44    45    1
   100    44    99    1
   101    45    46    1
   102    45   100    1
   103    45   101    1
   104    46    48    1
   105    46   102    1
   106    47    48    1
   107    47    49    1
   108    47   103    1
   109    48   104    1
   110    49   105    1
   111    49   106    1
   112    49   107    1
   113    50    51    1
   114    50   109    1
   115    51    52    1
   116    51   110    1
   117    51   111    1
   118    52    54    1
   119    52   112    1
   120    53    54    1
   121    53    55    1
   122    53   113    1
   123    54   114    1
   124    55   115    1
   125    55   116    1
   126    55   117    1
