@<TRIPOS>MOLECULE
IMPHY006401
 94 93 0 0 0
SMALL
GASTEIGER

@<TRIPOS>ATOM
      1 O           2.5369    0.2500    0.0000 O.3     1  UNL1       -0.3950
      2 O          29.3837   -0.2500    0.0000 O.3     1  UNL1       -0.3950
      3 C          15.5273   -0.2500    0.0000 C.3     1  UNL1       -0.0531
      4 C          16.3933    0.2500    0.0000 C.3     1  UNL1       -0.0531
      5 C          14.6613    0.2500    0.0000 C.3     1  UNL1       -0.0531
      6 C          17.2594   -0.2500    0.0000 C.3     1  UNL1       -0.0531
      7 C          13.7953   -0.2500    0.0000 C.3     1  UNL1       -0.0531
      8 C          18.1254    0.2500    0.0000 C.3     1  UNL1       -0.0531
      9 C          12.9292    0.2500    0.0000 C.3     1  UNL1       -0.0531
     10 C          18.9914   -0.2500    0.0000 C.3     1  UNL1       -0.0531
     11 C          12.0632   -0.2500    0.0000 C.3     1  UNL1       -0.0531
     12 C          19.8574    0.2500    0.0000 C.3     1  UNL1       -0.0531
     13 C          11.1972    0.2500    0.0000 C.3     1  UNL1       -0.0531
     14 C          20.7235   -0.2500    0.0000 C.3     1  UNL1       -0.0531
     15 C          10.3312   -0.2500    0.0000 C.3     1  UNL1       -0.0531
     16 C          21.5895    0.2500    0.0000 C.3     1  UNL1       -0.0531
     17 C           9.4651    0.2500    0.0000 C.3     1  UNL1       -0.0531
     18 C          22.4555   -0.2500    0.0000 C.3     1  UNL1       -0.0531
     19 C           8.5991   -0.2500    0.0000 C.3     1  UNL1       -0.0531
     20 C          23.3215    0.2500    0.0000 C.3     1  UNL1       -0.0531
     21 C           7.7331    0.2500    0.0000 C.3     1  UNL1       -0.0531
     22 C          24.1876   -0.2500    0.0000 C.3     1  UNL1       -0.0531
     23 C           6.8671   -0.2500    0.0000 C.3     1  UNL1       -0.0531
     24 C          25.0536    0.2500    0.0000 C.3     1  UNL1       -0.0531
     25 C           6.0010    0.2500    0.0000 C.3     1  UNL1       -0.0530
     26 C          25.9196   -0.2500    0.0000 C.3     1  UNL1       -0.0530
     27 C           5.1350   -0.2500    0.0000 C.3     1  UNL1       -0.0510
     28 C          26.7856    0.2500    0.0000 C.3     1  UNL1       -0.0510
     29 C           4.2690    0.2500    0.0000 C.3     1  UNL1       -0.0297
     30 C          27.6517   -0.2500    0.0000 C.3     1  UNL1       -0.0297
     31 C           3.4030   -0.2500    0.0000 C.3     1  UNL1        0.0442
     32 C          28.5177    0.2500    0.0000 C.3     1  UNL1        0.0442
     33 H          15.1288   -0.7249    0.0000 H       1  UNL1        0.0265
     34 H          15.9258   -0.7249    0.0000 H       1  UNL1        0.0265
     35 H          16.7919    0.7249    0.0000 H       1  UNL1        0.0265
     36 H          15.9948    0.7249    0.0000 H       1  UNL1        0.0265
     37 H          15.0598    0.7249    0.0000 H       1  UNL1        0.0265
     38 H          14.2628    0.7249    0.0000 H       1  UNL1        0.0265
     39 H          16.8608   -0.7249    0.0000 H       1  UNL1        0.0265
     40 H          17.6579   -0.7249    0.0000 H       1  UNL1        0.0265
     41 H          18.5239    0.7249    0.0000 H       1  UNL1        0.0265
     42 H          17.7269    0.7249    0.0000 H       1  UNL1        0.0265
     43 H          13.3967   -0.7249    0.0000 H       1  UNL1        0.0265
     44 H          14.1938   -0.7249    0.0000 H       1  UNL1        0.0265
     45 H          13.3278    0.7249    0.0000 H       1  UNL1        0.0265
     46 H          12.5307    0.7249    0.0000 H       1  UNL1        0.0265
     47 H          18.5929   -0.7249    0.0000 H       1  UNL1        0.0265
     48 H          19.3899   -0.7249    0.0000 H       1  UNL1        0.0265
     49 H          11.6647   -0.7249    0.0000 H       1  UNL1        0.0265
     50 H          12.4617   -0.7249    0.0000 H       1  UNL1        0.0265
     51 H          20.2560    0.7249    0.0000 H       1  UNL1        0.0265
     52 H          19.4589    0.7249    0.0000 H       1  UNL1        0.0265
     53 H          11.5957    0.7249    0.0000 H       1  UNL1        0.0265
     54 H          10.7987    0.7249    0.0000 H       1  UNL1        0.0265
     55 H          20.3249   -0.7249    0.0000 H       1  UNL1        0.0265
     56 H          21.1220   -0.7249    0.0000 H       1  UNL1        0.0265
     57 H          21.9880    0.7249    0.0000 H       1  UNL1        0.0265
     58 H          21.1910    0.7249    0.0000 H       1  UNL1        0.0265
     59 H           9.9326   -0.7249    0.0000 H       1  UNL1        0.0265
     60 H          10.7297   -0.7249    0.0000 H       1  UNL1        0.0265
     61 H           9.8637    0.7249    0.0000 H       1  UNL1        0.0265
     62 H           9.0666    0.7249    0.0000 H       1  UNL1        0.0265
     63 H          22.0570   -0.7249    0.0000 H       1  UNL1        0.0265
     64 H          22.8540   -0.7249    0.0000 H       1  UNL1        0.0265
     65 H          23.7201    0.7249    0.0000 H       1  UNL1        0.0265
     66 H          22.9230    0.7249    0.0000 H       1  UNL1        0.0265
     67 H           8.2006   -0.7249    0.0000 H       1  UNL1        0.0265
     68 H           8.9976   -0.7249    0.0000 H       1  UNL1        0.0265
     69 H           8.1316    0.7249    0.0000 H       1  UNL1        0.0265
     70 H           7.3346    0.7249    0.0000 H       1  UNL1        0.0265
     71 H          23.7890   -0.7249    0.0000 H       1  UNL1        0.0265
     72 H          24.5861   -0.7249    0.0000 H       1  UNL1        0.0265
     73 H           6.4685   -0.7249    0.0000 H       1  UNL1        0.0265
     74 H           7.2656   -0.7249    0.0000 H       1  UNL1        0.0265
     75 H          25.4521    0.7249    0.0000 H       1  UNL1        0.0265
     76 H          24.6551    0.7249    0.0000 H       1  UNL1        0.0265
     77 H           6.3996    0.7249    0.0000 H       1  UNL1        0.0265
     78 H           5.6025    0.7249    0.0000 H       1  UNL1        0.0265
     79 H          25.5211   -0.7249    0.0000 H       1  UNL1        0.0265
     80 H          26.3182   -0.7249    0.0000 H       1  UNL1        0.0265
     81 H           4.7365   -0.7249    0.0000 H       1  UNL1        0.0266
     82 H           5.5335   -0.7249    0.0000 H       1  UNL1        0.0266
     83 H          27.1842    0.7249    0.0000 H       1  UNL1        0.0266
     84 H          26.3871    0.7249    0.0000 H       1  UNL1        0.0266
     85 H           4.6675    0.7249    0.0000 H       1  UNL1        0.0287
     86 H           3.8705    0.7249    0.0000 H       1  UNL1        0.0287
     87 H          27.2531   -0.7249    0.0000 H       1  UNL1        0.0287
     88 H          28.0502   -0.7249    0.0000 H       1  UNL1        0.0287
     89 H           3.0044   -0.7249    0.0000 H       1  UNL1        0.0557
     90 H           3.8015   -0.7249    0.0000 H       1  UNL1        0.0557
     91 H          28.9162    0.7249    0.0000 H       1  UNL1        0.0557
     92 H          28.1192    0.7249    0.0000 H       1  UNL1        0.0557
     93 H           2.0000   -0.0600    0.0000 H       1  UNL1        0.2094
     94 H          29.9207    0.0600    0.0000 H       1  UNL1        0.2094
@<TRIPOS>BOND
     1     1    31    1
     2     1    93    1
     3     2    32    1
     4     2    94    1
     5     3     4    1
     6     3     5    1
     7     3    33    1
     8     3    34    1
     9     4     6    1
    10     4    35    1
    11     4    36    1
    12     5     7    1
    13     5    37    1
    14     5    38    1
    15     6     8    1
    16     6    39    1
    17     6    40    1
    18     7     9    1
    19     7    43    1
    20     7    44    1
    21     8    10    1
    22     8    41    1
    23     8    42    1
    24     9    11    1
    25     9    45    1
    26     9    46    1
    27    10    12    1
    28    10    47    1
    29    10    48    1
    30    11    13    1
    31    11    49    1
    32    11    50    1
    33    12    14    1
    34    12    51    1
    35    12    52    1
    36    13    15    1
    37    13    53    1
    38    13    54    1
    39    14    16    1
    40    14    55    1
    41    14    56    1
    42    15    17    1
    43    15    59    1
    44    15    60    1
    45    16    18    1
    46    16    57    1
    47    16    58    1
    48    17    19    1
    49    17    61    1
    50    17    62    1
    51    18    20    1
    52    18    63    1
    53    18    64    1
    54    19    21    1
    55    19    67    1
    56    19    68    1
    57    20    22    1
    58    20    65    1
    59    20    66    1
    60    21    23    1
    61    21    69    1
    62    21    70    1
    63    22    24    1
    64    22    71    1
    65    22    72    1
    66    23    25    1
    67    23    73    1
    68    23    74    1
    69    24    26    1
    70    24    75    1
    71    24    76    1
    72    25    27    1
    73    25    77    1
    74    25    78    1
    75    26    28    1
    76    26    79    1
    77    26    80    1
    78    27    29    1
    79    27    81    1
    80    27    82    1
    81    28    30    1
    82    28    83    1
    83    28    84    1
    84    29    31    1
    85    29    85    1
    86    29    86    1
    87    30    32    1
    88    30    87    1
    89    30    88    1
    90    31    89    1
    91    31    90    1
    92    32    91    1
    93    32    92    1
