@<TRIPOS>MOLECULE
IMPHY008055
 56 58 0 0 0
SMALL
GASTEIGER

@<TRIPOS>ATOM
      1 O           3.3187   -1.9797    0.0000 O.3     1  UNL1       -0.3890
      2 O           2.3121   -0.2516    0.0000 O.3     1  UNL1       -0.3924
      3 C           6.6154   -0.0871    0.0000 C.3     1  UNL1       -0.0256
      4 C           7.4814    0.4129    0.0000 C.3     1  UNL1       -0.0260
      5 C           6.6154   -1.0871    0.0000 C.3     1  UNL1       -0.0347
      6 C           8.3474   -0.0871    0.0000 C.3     1  UNL1       -0.0080
      7 C           5.7214    0.4475    0.0000 C.3     1  UNL1       -0.0465
      8 C           5.7214   -1.6218    0.0000 C.3     1  UNL1       -0.0418
      9 C           4.8154   -1.1079    0.0000 C.3     1  UNL1       -0.0037
     10 C           7.4814   -1.5871    0.0000 C.3     1  UNL1       -0.0489
     11 C           8.3474   -1.0871    0.0000 C.3     1  UNL1       -0.0434
     12 C           4.8154   -0.0663    0.0000 C.3     1  UNL1       -0.0447
     13 C           7.4654    1.4544    0.0000 C.3     1  UNL1       -0.0455
     14 C           6.6154    0.9129    0.0000 C.3     1  UNL1       -0.0590
     15 C           9.2574    0.4197    0.0000 C.2     1  UNL1       -0.0704
     16 C           9.2135   -0.5871    0.0000 C.3     1  UNL1       -0.0556
     17 C           3.8154   -1.1118    0.0000 C.3     1  UNL1        0.0836
     18 C           8.3634    1.9821    0.0000 C.3     1  UNL1       -0.0342
     19 C           4.3187   -1.9759    0.0000 C.3     1  UNL1       -0.0571
     20 C           9.2655    1.4613    0.0000 C.2     1  UNL1       -0.0845
     21 C          10.1176   -0.0903    0.0000 C.3     1  UNL1       -0.0433
     22 C           3.3121   -0.2477    0.0000 C.3     1  UNL1        0.0706
     23 H           8.2142    0.8435    0.0000 H       1  UNL1        0.0315
     24 H           6.6220   -1.9371    0.0000 H       1  UNL1        0.0306
     25 H           6.1260    0.9173    0.0000 H       1  UNL1        0.0271
     26 H           5.3278    0.9266    0.0000 H       1  UNL1        0.0271
     27 H           5.3278   -2.1008    0.0000 H       1  UNL1        0.0274
     28 H           6.1260   -2.0916    0.0000 H       1  UNL1        0.0274
     29 H           7.0829   -2.0621    0.0000 H       1  UNL1        0.0268
     30 H           7.8800   -2.0621    0.0000 H       1  UNL1        0.0268
     31 H           8.5595   -1.6697    0.0000 H       1  UNL1        0.0274
     32 H           8.9580   -0.9795    0.0000 H       1  UNL1        0.0274
     33 H           4.6063    0.5174    0.0000 H       1  UNL1        0.0272
     34 H           4.2045   -0.1724    0.0000 H       1  UNL1        0.0272
     35 H           7.2473    2.0348    0.0000 H       1  UNL1        0.0271
     36 H           6.8562    1.3389    0.0000 H       1  UNL1        0.0271
     37 H           7.2354    0.9129    0.0000 H       1  UNL1        0.0235
     38 H           6.6154    1.5329    0.0000 H       1  UNL1        0.0235
     39 H           5.9954    0.9129    0.0000 H       1  UNL1        0.0235
     40 H           8.9035   -1.1241    0.0000 H       1  UNL1        0.0238
     41 H           9.7504   -0.8971    0.0000 H       1  UNL1        0.0238
     42 H           9.5235   -0.0502    0.0000 H       1  UNL1        0.0238
     43 H           3.1954   -1.1142    0.0000 H       1  UNL1        0.0621
     44 H           8.7607    2.4581    0.0000 H       1  UNL1        0.0307
     45 H           7.9624    2.4550    0.0000 H       1  UNL1        0.0307
     46 H           3.7806   -1.6680    0.0000 H       1  UNL1        0.0236
     47 H           4.0108   -2.5140    0.0000 H       1  UNL1        0.0236
     48 H           4.8568   -2.2838    0.0000 H       1  UNL1        0.0236
     49 H           9.8036    1.7692    0.0000 H       1  UNL1        0.0572
     50 H           9.8015   -0.6236    0.0000 H       1  UNL1        0.0275
     51 H          10.6509   -0.4064    0.0000 H       1  UNL1        0.0275
     52 H          10.4338    0.4431    0.0000 H       1  UNL1        0.0275
     53 H           3.8938   -0.0334    0.0000 H       1  UNL1        0.0583
     54 H           3.2020    0.3625    0.0000 H       1  UNL1        0.0583
     55 H           2.6987   -1.9821    0.0000 H       1  UNL1        0.2099
     56 H           2.0000    0.2842    0.0000 H       1  UNL1        0.2095
@<TRIPOS>BOND
     1    17     1    1
     2     1    55    1
     3     2    22    1
     4     2    56    1
     5     3     4    1
     6     3     5    1
     7     3     7    1
     8     3    14    1
     9     4     6    1
    10     4    13    1
    11     4    23    1
    12     5     8    1
    13     5    10    1
    14     5    24    1
    15     6    11    1
    16     6    15    1
    17     6    16    1
    18     7    12    1
    19     7    25    1
    20     7    26    1
    21     8     9    1
    22     8    27    1
    23     8    28    1
    24     9    12    1
    25     9    17    1
    26     9    19    1
    27    10    11    1
    28    10    29    1
    29    10    30    1
    30    11    31    1
    31    11    32    1
    32    12    33    1
    33    12    34    1
    34    13    18    1
    35    13    35    1
    36    13    36    1
    37    14    37    1
    38    14    38    1
    39    14    39    1
    40    15    20    2
    41    15    21    1
    42    16    40    1
    43    16    41    1
    44    16    42    1
    45    17    22    1
    46    17    43    1
    47    18    20    1
    48    18    44    1
    49    18    45    1
    50    19    46    1
    51    19    47    1
    52    19    48    1
    53    20    49    1
    54    21    50    1
    55    21    51    1
    56    21    52    1
    57    22    53    1
    58    22    54    1
