@<TRIPOS>MOLECULE
IMPHY016856
 27 26 0 0 0
SMALL
GASTEIGER

@<TRIPOS>ATOM
      1 O           2.5369    0.5000    0.0000 O.2     1  UNL1       -0.4093
      2 N           3.4030    1.0000    0.0000 N.2     1  UNL1       -0.0965
      3 C           6.0010    0.5000    0.0000 C.3     1  UNL1       -0.0389
      4 C           5.1350    1.0000    0.0000 C.3     1  UNL1       -0.0086
      5 C           6.8671    1.0000    0.0000 C.3     1  UNL1       -0.0530
      6 C           6.0010   -0.5000    0.0000 C.3     1  UNL1       -0.0621
      7 C           4.2690    0.5000    0.0000 C.2     1  UNL1        0.0574
      8 C           7.7331    0.5000    0.0000 C.3     1  UNL1       -0.0650
      9 C           4.2690   -0.5000    0.0000 C.3     1  UNL1       -0.0140
     10 C           3.4030   -1.0000    0.0000 C.3     1  UNL1       -0.0600
     11 H           6.5380    0.1900    0.0000 H       1  UNL1        0.0302
     12 H           5.5335    1.4750    0.0000 H       1  UNL1        0.0329
     13 H           4.7365    1.4750    0.0000 H       1  UNL1        0.0329
     14 H           7.2656    1.4750    0.0000 H       1  UNL1        0.0265
     15 H           6.4685    1.4750    0.0000 H       1  UNL1        0.0265
     16 H           5.3810   -0.5000    0.0000 H       1  UNL1        0.0233
     17 H           6.0010   -1.1200    0.0000 H       1  UNL1        0.0233
     18 H           6.6210   -0.5000    0.0000 H       1  UNL1        0.0233
     19 H           7.4231   -0.0369    0.0000 H       1  UNL1        0.0230
     20 H           8.2700    0.1900    0.0000 H       1  UNL1        0.0230
     21 H           8.0431    1.0369    0.0000 H       1  UNL1        0.0230
     22 H           4.4810   -1.0826    0.0000 H       1  UNL1        0.0323
     23 H           4.8796   -0.3923    0.0000 H       1  UNL1        0.0323
     24 H           3.0930   -0.4631    0.0000 H       1  UNL1        0.0233
     25 H           2.8660   -1.3100    0.0000 H       1  UNL1        0.0233
     26 H           3.7130   -1.5369    0.0000 H       1  UNL1        0.0233
     27 H           2.0000    0.8100    0.0000 H       1  UNL1        0.3278
@<TRIPOS>BOND
     1     1     2    1
     2     1    27    1
     3     2     7    2
     4     3     4    1
     5     3     5    1
     6     3     6    1
     7     3    11    1
     8     4     7    1
     9     4    12    1
    10     4    13    1
    11     5     8    1
    12     5    14    1
    13     5    15    1
    14     6    16    1
    15     6    17    1
    16     6    18    1
    17     7     9    1
    18     8    19    1
    19     8    20    1
    20     8    21    1
    21     9    10    1
    22     9    22    1
    23     9    23    1
    24    10    24    1
    25    10    25    1
    26    10    26    1
