@<TRIPOS>MOLECULE
IMPHY013719
 62 66 0 0 0
SMALL
GASTEIGER

@<TRIPOS>ATOM
      1 O           7.2093    2.1931    0.0000 O.2     1  UNL1       -0.2752
      2 N           9.0503    2.5357    0.0000 N.am    1  UNL1       -0.3120
      3 N           2.8641   -2.1557    0.0000 N.3     1  UNL1       -0.3051
      4 C           8.2572    0.8966    0.0000 C.3     1  UNL1        0.0545
      5 C           8.2572   -0.1034    0.0000 C.3     1  UNL1       -0.0234
      6 C           7.3912   -0.6034    0.0000 C.3     1  UNL1       -0.0302
      7 C           9.2034    1.2014    0.0000 C.3     1  UNL1       -0.0086
      8 C           6.5251   -0.1034    0.0000 C.3     1  UNL1       -0.0285
      9 C           7.3912    1.3966    0.0000 C.3     1  UNL1       -0.0382
     10 C           9.2034   -0.4081    0.0000 C.3     1  UNL1       -0.0486
     11 C           5.6151   -0.6102    0.0000 C.3     1  UNL1       -0.0079
     12 C           6.5251    0.8966    0.0000 C.3     1  UNL1       -0.0482
     13 C           9.7870    0.3966    0.0000 C.3     1  UNL1       -0.0473
     14 C           9.6975    2.0572    0.0000 C.3     1  UNL1        0.0241
     15 C           8.1590    1.8799    0.0000 C.2     1  UNL1        0.2200
     16 C           7.4072   -1.6449    0.0000 C.3     1  UNL1       -0.0311
     17 C           5.6071   -1.6518    0.0000 C.2     1  UNL1       -0.0658
     18 C           4.6883   -0.0461    0.0000 C.3     1  UNL1       -0.0422
     19 C           6.5092   -2.1726    0.0000 C.2     1  UNL1       -0.0839
     20 C           5.6228    0.3897    0.0000 C.3     1  UNL1       -0.0556
     21 C           4.6717   -2.2016    0.0000 C.3     1  UNL1       -0.0156
     22 C           3.7404   -0.5741    0.0000 C.3     1  UNL1       -0.0363
     23 C           3.7320   -1.6590    0.0000 C.3     1  UNL1        0.0135
     24 C          10.6488    2.3654    0.0000 C.3     1  UNL1       -0.0463
     25 C           2.0000   -1.6524    0.0000 C.3     1  UNL1       -0.0128
     26 C           2.8602   -3.1557    0.0000 C.3     1  UNL1       -0.0128
     27 H           8.3471   -0.9486    0.0000 H       1  UNL1        0.0314
     28 H           8.1305   -1.0227    0.0000 H       1  UNL1        0.0310
     29 H          10.0522    1.2455    0.0000 H       1  UNL1        0.0329
     30 H           7.2612    0.3216    0.0000 H       1  UNL1        0.0312
     31 H           7.7897    1.8716    0.0000 H       1  UNL1        0.0275
     32 H           6.9926    1.8716    0.0000 H       1  UNL1        0.0275
     33 H           8.9524   -0.9750    0.0000 H       1  UNL1        0.0268
     34 H           9.7408   -0.7173    0.0000 H       1  UNL1        0.0268
     35 H           6.3131    1.4792    0.0000 H       1  UNL1        0.0269
     36 H           5.9145    0.7890    0.0000 H       1  UNL1        0.0269
     37 H          10.2479   -0.0181    0.0000 H       1  UNL1        0.0269
     38 H          10.2479    0.8114    0.0000 H       1  UNL1        0.0269
     39 H           9.7973    2.6691    0.0000 H       1  UNL1        0.0498
     40 H           7.6252   -2.2253    0.0000 H       1  UNL1        0.0310
     41 H           8.0164   -1.5294    0.0000 H       1  UNL1        0.0310
     42 H           5.0965    0.4205    0.0000 H       1  UNL1        0.0274
     43 H           4.2984    0.4359    0.0000 H       1  UNL1        0.0274
     44 H           9.0519    3.1557    0.0000 H       1  UNL1        0.1490
     45 H           6.5116   -2.7926    0.0000 H       1  UNL1        0.0572
     46 H           6.2428    0.3850    0.0000 H       1  UNL1        0.0238
     47 H           5.6276    1.0097    0.0000 H       1  UNL1        0.0238
     48 H           5.0028    0.3945    0.0000 H       1  UNL1        0.0238
     49 H           4.2744   -2.6775    0.0000 H       1  UNL1        0.0325
     50 H           5.0726   -2.6744    0.0000 H       1  UNL1        0.0325
     51 H           3.5358    0.0112    0.0000 H       1  UNL1        0.0281
     52 H           3.1288   -0.6755    0.0000 H       1  UNL1        0.0281
     53 H           3.7308   -2.2790    0.0000 H       1  UNL1        0.0465
     54 H          10.8399    1.7755    0.0000 H       1  UNL1        0.0248
     55 H          11.2386    2.5564    0.0000 H       1  UNL1        0.0248
     56 H          10.4577    2.9552    0.0000 H       1  UNL1        0.0248
     57 H           2.3121   -1.1166    0.0000 H       1  UNL1        0.0391
     58 H           1.4643   -1.3403    0.0000 H       1  UNL1        0.0391
     59 H           1.6879   -2.1881    0.0000 H       1  UNL1        0.0391
     60 H           2.2402   -3.1533    0.0000 H       1  UNL1        0.0391
     61 H           2.8578   -3.7757    0.0000 H       1  UNL1        0.0391
     62 H           3.4802   -3.1581    0.0000 H       1  UNL1        0.0391
@<TRIPOS>BOND
     1     1    15    2
     2     2    14    1
     3     2    15   am
     4     2    44    1
     5    23     3    1
     6     3    25    1
     7     3    26    1
     8     4     5    1
     9     4     7    1
    10     4     9    1
    11     4    15    1
    12     5     6    1
    13     5    10    1
    14     5    27    1
    15     6     8    1
    16     6    16    1
    17     6    28    1
    18     7    13    1
    19     7    14    1
    20     7    29    1
    21     8    11    1
    22     8    12    1
    23     8    30    1
    24     9    12    1
    25     9    31    1
    26     9    32    1
    27    10    13    1
    28    10    33    1
    29    10    34    1
    30    11    17    1
    31    11    18    1
    32    11    20    1
    33    12    35    1
    34    12    36    1
    35    13    37    1
    36    13    38    1
    37    14    24    1
    38    14    39    1
    39    16    19    1
    40    16    40    1
    41    16    41    1
    42    17    19    2
    43    17    21    1
    44    18    22    1
    45    18    42    1
    46    18    43    1
    47    19    45    1
    48    20    46    1
    49    20    47    1
    50    20    48    1
    51    21    23    1
    52    21    49    1
    53    21    50    1
    54    22    23    1
    55    22    51    1
    56    22    52    1
    57    23    53    1
    58    24    54    1
    59    24    55    1
    60    24    56    1
    61    25    57    1
    62    25    58    1
    63    25    59    1
    64    26    60    1
    65    26    61    1
    66    26    62    1
