@<TRIPOS>MOLECULE
IMPHY008589
 175 188 0 0 0
SMALL
GASTEIGER

@<TRIPOS>ATOM
      1 O          16.5876    2.7617    0.0000 O.3     1  UNL1       -0.3281
      2 O           5.9860   -2.5083    0.0000 O.3     1  UNL1       -0.3374
      3 O          14.7610    5.2283    0.0000 O.3     1  UNL1       -0.4500
      4 O          13.9413    3.3694    0.0000 O.3     1  UNL1       -0.4511
      5 O          16.7468    5.4658    0.0000 O.3     1  UNL1       -0.4476
      6 O           8.4266   -4.5027    0.0000 O.3     1  UNL1       -0.4501
      7 O           6.8680   -5.0498    0.0000 O.3     1  UNL1       -0.4512
      8 O           8.4494   -1.5517    0.0000 O.3     1  UNL1       -0.4488
      9 O          17.9817    3.8526    0.0000 O.3     1  UNL1       -0.4275
     10 O           6.8802   -0.9805    0.0000 O.3     1  UNL1       -0.3641
     11 O          15.7524    0.9175    0.0000 O.3     1  UNL1       -0.4584
     12 O           4.8772   -5.0157    0.0000 O.3     1  UNL1       -0.4584
     13 O          14.5553    6.9481    0.0000 O.2     1  UNL1       -0.2449
     14 O          18.3390    4.7840    0.0000 O.2     1  UNL1       -0.2449
     15 O           9.4939   -5.8905    0.0000 O.2     1  UNL1       -0.2449
     16 O          14.1271    1.6474    0.0000 O.2     1  UNL1       -0.2448
     17 O           9.5379   -0.1805    0.0000 O.2     1  UNL1       -0.2449
     18 O           5.8477   -6.7301    0.0000 O.2     1  UNL1       -0.2449
     19 O          12.7286    0.6255    0.0000 O.3     1  UNL1       -0.4476
     20 O          18.2072    2.1353    0.0000 O.2     1  UNL1       -0.2449
     21 O           5.8772   -5.0157    0.0000 O.2     1  UNL1       -0.2449
     22 O          13.4991   -2.6182    0.0000 O.3     1  UNL1       -0.5028
     23 O          17.1429    1.9501    0.0000 O.2     1  UNL1       -0.2450
     24 O          16.2854    9.3930    0.0000 O.3     1  UNL1       -0.5028
     25 O          13.4922   -3.5141    0.0000 O.3     1  UNL1       -0.5028
     26 O          17.3208    9.0616    0.0000 O.3     1  UNL1       -0.5028
     27 O          14.0275   -1.1666    0.0000 O.3     1  UNL1       -0.5009
     28 O           6.3741   -9.3840    0.0000 O.3     1  UNL1       -0.5028
     29 O          12.6893    6.8863    0.0000 O.3     1  UNL1       -0.5032
     30 O          12.6718   -6.7456    0.0000 O.3     1  UNL1       -0.5032
     31 O          20.5802    7.6808    0.0000 O.3     1  UNL1       -0.5032
     32 O          13.7060    9.2606    0.0000 O.3     1  UNL1       -0.5009
     33 O          13.9982   -4.9738    0.0000 O.3     1  UNL1       -0.5009
     34 O          19.3527    9.3205    0.0000 O.3     1  UNL1       -0.5009
     35 O           5.3803   -9.3840    0.0000 O.3     1  UNL1       -0.5028
     36 O          10.7401    0.4110    0.0000 O.3     1  UNL1       -0.5008
     37 O           9.4464   -7.6259    0.0000 O.3     1  UNL1       -0.5032
     38 O           8.4223   -9.3998    0.0000 O.3     1  UNL1       -0.5009
     39 O          10.3686    3.8551    0.0000 O.3     1  UNL1       -0.5032
     40 O           9.5601    2.0258    0.0000 O.3     1  UNL1       -0.5008
     41 O           3.3321   -9.3998    0.0000 O.3     1  UNL1       -0.5009
     42 O           2.3079   -7.6259    0.0000 O.3     1  UNL1       -0.5032
     43 O          21.3391    5.1670    0.0000 O.3     1  UNL1       -0.5032
     44 O          21.7902    1.7324    0.0000 O.3     1  UNL1       -0.5032
     45 O          22.5562    3.5799    0.0000 O.3     1  UNL1       -0.5009
     46 O          19.9249   -0.3435    0.0000 O.3     1  UNL1       -0.5032
     47 O          17.1438   -2.4088    0.0000 O.3     1  UNL1       -0.5032
     48 O          19.1305   -2.1790    0.0000 O.3     1  UNL1       -0.5009
     49 C          15.3603    4.4278    0.0000 C.3     1  UNL1        0.1851
     50 C          14.9355    3.4767    0.0000 C.3     1  UNL1        0.1730
     51 C          16.3532    4.5465    0.0000 C.3     1  UNL1        0.2053
     52 C           7.7780   -3.5429    0.0000 C.3     1  UNL1        0.1840
     53 C           6.8680   -4.0498    0.0000 C.3     1  UNL1        0.1729
     54 C          15.5533    2.6380    0.0000 C.3     1  UNL1        0.1371
     55 C           7.7861   -2.5013    0.0000 C.3     1  UNL1        0.1938
     56 C           6.0020   -3.5498    0.0000 C.3     1  UNL1        0.1361
     57 C          16.9902    3.7224    0.0000 C.3     1  UNL1        0.2465
     58 C           6.8840   -1.9805    0.0000 C.3     1  UNL1        0.1981
     59 C          15.1562    1.7203    0.0000 C.3     1  UNL1        0.1226
     60 C           5.1360   -4.0498    0.0000 C.3     1  UNL1        0.1226
     61 C          15.1546    6.1476    0.0000 C.2     1  UNL1        0.3405
     62 C          17.7398    5.5845    0.0000 C.2     1  UNL1        0.3406
     63 C           9.5180   -4.8908    0.0000 C.2     1  UNL1        0.3405
     64 C          13.5371    2.4548    0.0000 C.2     1  UNL1        0.3435
     65 C           9.5466   -1.1805    0.0000 C.2     1  UNL1        0.3406
     66 C           6.3772   -5.8817    0.0000 C.2     1  UNL1        0.3405
     67 C          16.1475    6.2663    0.0000 C.ar    1  UNL1        0.0740
     68 C          10.6503   -1.5324    0.0000 C.ar    1  UNL1        0.0740
     69 C          10.6270   -4.5559    0.0000 C.ar    1  UNL1        0.0740
     70 C          18.1334    6.5038    0.0000 C.ar    1  UNL1        0.0740
     71 C          18.5902    3.0590    0.0000 C.2     1  UNL1        0.3417
     72 C          11.3301   -2.4703    0.0000 C.ar    1  UNL1        0.0458
     73 C          16.5412    7.1856    0.0000 C.ar    1  UNL1        0.0458
     74 C          11.3212   -3.6286    0.0000 C.ar    1  UNL1        0.0458
     75 C          17.5341    7.3043    0.0000 C.ar    1  UNL1        0.0458
     76 C           6.8772   -6.7478    0.0000 C.ar    1  UNL1        0.0740
     77 C          12.5428    2.3475    0.0000 C.ar    1  UNL1        0.1085
     78 C           5.3772   -5.8817    0.0000 C.2     1  UNL1        0.3401
     79 C           6.3772   -7.6138    0.0000 C.ar    1  UNL1        0.0458
     80 C          16.7457    1.0324    0.0000 C.2     1  UNL1        0.3395
     81 C           4.8772   -6.7478    0.0000 C.ar    1  UNL1        0.0740
     82 C          11.1252   -0.4232    0.0000 C.ar    1  UNL1       -0.0009
     83 C           5.3772   -7.6138    0.0000 C.ar    1  UNL1        0.0458
     84 C          14.6719    5.8825    0.0000 C.ar    1  UNL1       -0.0017
     85 C          12.5320   -2.3640    0.0000 C.ar    1  UNL1        0.1708
     86 C          12.1386    1.4329    0.0000 C.ar    1  UNL1        0.1876
     87 C          11.0848   -5.6723    0.0000 C.ar    1  UNL1       -0.0017
     88 C          19.1694    6.6115    0.0000 C.ar    1  UNL1       -0.0017
     89 C          19.5817    3.1893    0.0000 C.ar    1  UNL1        0.0662
     90 C          12.3243   -0.2892    0.0000 C.ar    1  UNL1        0.1743
     91 C          15.8006    8.5184    0.0000 C.ar    1  UNL1        0.1708
     92 C          12.5213   -3.7534    0.0000 C.ar    1  UNL1        0.1708
     93 C          17.9293    8.2681    0.0000 C.ar    1  UNL1        0.1708
     94 C           7.9187   -6.7317    0.0000 C.ar    1  UNL1       -0.0017
     95 C          13.0325   -1.2661    0.0000 C.ar    1  UNL1        0.2021
     96 C          11.9528    3.1550    0.0000 C.ar    1  UNL1        0.0013
     97 C           6.8840   -8.5238    0.0000 C.ar    1  UNL1        0.1708
     98 C          13.6776    7.0385    0.0000 C.ar    1  UNL1        0.1628
     99 C          12.2817   -5.8248    0.0000 C.ar    1  UNL1        0.1628
    100 C          19.5868    7.5659    0.0000 C.ar    1  UNL1        0.1628
    101 C          14.2778    8.4402    0.0000 C.ar    1  UNL1        0.2012
    102 C          13.0048   -4.8589    0.0000 C.ar    1  UNL1        0.2012
    103 C          18.9626    8.3997    0.0000 C.ar    1  UNL1        0.2012
    104 C          17.3419    0.2295    0.0000 C.ar    1  UNL1        0.0661
    105 C           4.8703   -8.5238    0.0000 C.ar    1  UNL1        0.1708
    106 C           3.8357   -6.7317    0.0000 C.ar    1  UNL1       -0.0017
    107 C          11.1444    1.3256    0.0000 C.ar    1  UNL1        0.2060
    108 C           8.4464   -7.6297    0.0000 C.ar    1  UNL1        0.1628
    109 C           7.9256   -8.5318    0.0000 C.ar    1  UNL1        0.2012
    110 C          10.9586    3.0477    0.0000 C.ar    1  UNL1        0.1630
    111 C          20.1902    2.3957    0.0000 C.ar    1  UNL1       -0.0023
    112 C          19.9647    4.1130    0.0000 C.ar    1  UNL1       -0.0023
    113 C          10.5544    2.1330    0.0000 C.ar    1  UNL1        0.2044
    114 C           3.8287   -8.5318    0.0000 C.ar    1  UNL1        0.2012
    115 C           3.3079   -7.6297    0.0000 C.ar    1  UNL1        0.1628
    116 C          16.9448   -0.6882    0.0000 C.ar    1  UNL1       -0.0023
    117 C          18.3353    0.3444    0.0000 C.ar    1  UNL1       -0.0023
    118 C          20.9562    4.2432    0.0000 C.ar    1  UNL1        0.1628
    119 C          21.1817    2.5259    0.0000 C.ar    1  UNL1        0.1628
    120 C          21.5647    3.4497    0.0000 C.ar    1  UNL1        0.2006
    121 C          18.9315   -0.4584    0.0000 C.ar    1  UNL1        0.1628
    122 C          17.5410   -1.4910    0.0000 C.ar    1  UNL1        0.1628
    123 C          18.5343   -1.3761    0.0000 C.ar    1  UNL1        0.2006
    124 H          14.5155    4.3334    0.0000 H       1  UNL1        0.0813
    125 H          14.5707    3.9780    0.0000 H       1  UNL1        0.0801
    126 H          17.1964    4.6540    0.0000 H       1  UNL1        0.0837
    127 H           7.5808   -4.3697    0.0000 H       1  UNL1        0.0812
    128 H           7.6009   -4.4804    0.0000 H       1  UNL1        0.0801
    129 H          15.9239    2.1410    0.0000 H       1  UNL1        0.0670
    130 H           7.6016   -1.6716    0.0000 H       1  UNL1        0.0825
    131 H           5.2626   -3.1305    0.0000 H       1  UNL1        0.0670
    132 H          17.2266    4.2956    0.0000 H       1  UNL1        0.1098
    133 H           6.3453   -1.6736    0.0000 H       1  UNL1        0.0948
    134 H          14.6386    2.0616    0.0000 H       1  UNL1        0.0725
    135 H          14.7301    1.2698    0.0000 H       1  UNL1        0.0725
    136 H           4.9755   -3.4509    0.0000 H       1  UNL1        0.0725
    137 H           4.5160   -4.0498    0.0000 H       1  UNL1        0.0725
    138 H           6.3420   -0.6726    0.0000 H       1  UNL1        0.2126
    139 H          10.7556    0.0746    0.0000 H       1  UNL1        0.0664
    140 H          14.4869    5.2908    0.0000 H       1  UNL1        0.0664
    141 H          10.7075   -6.1643    0.0000 H       1  UNL1        0.0664
    142 H          19.5352    6.1109    0.0000 H       1  UNL1        0.0664
    143 H           8.2225   -6.1912    0.0000 H       1  UNL1        0.0664
    144 H          12.2035    3.7220    0.0000 H       1  UNL1        0.0665
    145 H           3.5319   -6.1912    0.0000 H       1  UNL1        0.0664
    146 H          19.9528    1.8230    0.0000 H       1  UNL1        0.0663
    147 H          19.5874    4.6050    0.0000 H       1  UNL1        0.0663
    148 H          13.9355   -2.1777    0.0000 H       1  UNL1        0.2923
    149 H          16.3289   -0.7594    0.0000 H       1  UNL1        0.0663
    150 H          18.5816    0.9134    0.0000 H       1  UNL1        0.0663
    151 H          15.9660    9.9245    0.0000 H       1  UNL1        0.2923
    152 H          13.9217   -3.9613    0.0000 H       1  UNL1        0.2923
    153 H          17.5582    9.6344    0.0000 H       1  UNL1        0.2923
    154 H          14.2825   -0.6014    0.0000 H       1  UNL1        0.2924
    155 H           6.6778   -9.9245    0.0000 H       1  UNL1        0.2923
    156 H          12.3011    7.3697    0.0000 H       1  UNL1        0.2923
    157 H          12.2983   -7.2405    0.0000 H       1  UNL1        0.2923
    158 H          20.9498    7.1830    0.0000 H       1  UNL1        0.2923
    159 H          13.0882    9.2078    0.0000 H       1  UNL1        0.2924
    160 H          14.2444   -5.5428    0.0000 H       1  UNL1        0.2924
    161 H          19.9680    9.3965    0.0000 H       1  UNL1        0.2924
    162 H           5.0766   -9.9245    0.0000 H       1  UNL1        0.2923
    163 H          10.1237    0.3445    0.0000 H       1  UNL1        0.2924
    164 H           9.7585   -8.1616    0.0000 H       1  UNL1        0.2923
    165 H           9.0423   -9.4022    0.0000 H       1  UNL1        0.2924
    166 H          10.6192    4.4222    0.0000 H       1  UNL1        0.2923
    167 H           9.1943    2.5264    0.0000 H       1  UNL1        0.2924
    168 H           2.7121   -9.4022    0.0000 H       1  UNL1        0.2924
    169 H           2.0000   -7.0878    0.0000 H       1  UNL1        0.2923
    170 H          21.9539    5.2477    0.0000 H       1  UNL1        0.2923
    171 H          22.4049    1.8131    0.0000 H       1  UNL1        0.2923
    172 H          22.9334    3.0879    0.0000 H       1  UNL1        0.2924
    173 H          20.2945   -0.8412    0.0000 H       1  UNL1        0.2923
    174 H          17.5134   -2.9065    0.0000 H       1  UNL1        0.2923
    175 H          19.7464   -2.1077    0.0000 H       1  UNL1        0.2924
@<TRIPOS>BOND
     1     1    54    1
     2     1    57    1
     3     2    56    1
     4     2    58    1
     5     3    49    1
     6     3    61    1
     7    50     4    1
     8     4    64    1
     9     5    51    1
    10     5    62    1
    11     6    52    1
    12     6    63    1
    13     7    53    1
    14     7    66    1
    15     8    55    1
    16     8    65    1
    17    57     9    1
    18     9    71    1
    19    58    10    1
    20    10   138    1
    21    11    59    1
    22    11    80    1
    23    12    60    1
    24    12    78    1
    25    13    61    2
    26    14    62    2
    27    15    63    2
    28    16    64    2
    29    17    65    2
    30    18    66    2
    31    19    86    1
    32    19    90    1
    33    20    71    2
    34    21    78    2
    35    22    85    1
    36    22   148    1
    37    23    80    2
    38    24    91    1
    39    24   151    1
    40    25    92    1
    41    25   152    1
    42    26    93    1
    43    26   153    1
    44    27    95    1
    45    27   154    1
    46    28    97    1
    47    28   155    1
    48    29    98    1
    49    29   156    1
    50    30    99    1
    51    30   157    1
    52    31   100    1
    53    31   158    1
    54    32   101    1
    55    32   159    1
    56    33   102    1
    57    33   160    1
    58    34   103    1
    59    34   161    1
    60    35   105    1
    61    35   162    1
    62    36   107    1
    63    36   163    1
    64    37   108    1
    65    37   164    1
    66    38   109    1
    67    38   165    1
    68    39   110    1
    69    39   166    1
    70    40   113    1
    71    40   167    1
    72    41   114    1
    73    41   168    1
    74    42   115    1
    75    42   169    1
    76    43   118    1
    77    43   170    1
    78    44   119    1
    79    44   171    1
    80    45   120    1
    81    45   172    1
    82    46   121    1
    83    46   173    1
    84    47   122    1
    85    47   174    1
    86    48   123    1
    87    48   175    1
    88    49    50    1
    89    49    51    1
    90    49   124    1
    91    50    54    1
    92    50   125    1
    93    51    57    1
    94    51   126    1
    95    52    53    1
    96    52    55    1
    97    52   127    1
    98    53    56    1
    99    53   128    1
   100    54    59    1
   101    54   129    1
   102    55    58    1
   103    55   130    1
   104    56    60    1
   105    56   131    1
   106    57   132    1
   107    58   133    1
   108    59   134    1
   109    59   135    1
   110    60   136    1
   111    60   137    1
   112    61    67    1
   113    62    70    1
   114    63    69    1
   115    64    77    1
   116    65    68    1
   117    66    76    1
   118    67    73   ar
   119    67    84   ar
   120    68    72   ar
   121    68    82   ar
   122    69    74   ar
   123    69    87   ar
   124    70    75   ar
   125    70    88   ar
   126    71    89    1
   127    72    74    1
   128    72    85   ar
   129    73    75    1
   130    73    91   ar
   131    74    92   ar
   132    75    93   ar
   133    76    79   ar
   134    76    94   ar
   135    77    86   ar
   136    77    96   ar
   137    78    81    1
   138    79    83    1
   139    79    97   ar
   140    80   104    1
   141    81    83   ar
   142    81   106   ar
   143    82    90   ar
   144    82   139    1
   145    83   105   ar
   146    84    98   ar
   147    84   140    1
   148    85    95   ar
   149    86   107   ar
   150    87    99   ar
   151    87   141    1
   152    88   100   ar
   153    88   142    1
   154    89   111   ar
   155    89   112   ar
   156    90    95   ar
   157    91   101   ar
   158    92   102   ar
   159    93   103   ar
   160    94   108   ar
   161    94   143    1
   162    96   110   ar
   163    96   144    1
   164    97   109   ar
   165    98   101   ar
   166    99   102   ar
   167   100   103   ar
   168   104   116   ar
   169   104   117   ar
   170   105   114   ar
   171   106   115   ar
   172   106   145    1
   173   107   113   ar
   174   108   109   ar
   175   110   113   ar
   176   111   119   ar
   177   111   146    1
   178   112   118   ar
   179   112   147    1
   180   114   115   ar
   181   116   122   ar
   182   116   149    1
   183   117   121   ar
   184   117   150    1
   185   118   120   ar
   186   119   120   ar
   187   121   123   ar
   188   122   123   ar
