@<TRIPOS>MOLECULE
IMPHY008953
 36 35 0 0 0
SMALL
GASTEIGER

@<TRIPOS>ATOM
      1 O          16.7224    0.8100    0.0000 O.3     1  UNL1       -0.4456
      2 O          14.1244    0.3100    0.0000 O.3     1  UNL1       -0.4444
      3 O          17.5885   -0.6900    0.0000 O.2     1  UNL1       -0.2501
      4 O          13.2583    1.8100    0.0000 O.2     1  UNL1       -0.2501
      5 O          14.9904   -1.1900    0.0000 O.3     1  UNL1       -0.2162
      6 C          22.7846    0.3100    0.0000 C.3     1  UNL1        0.0000
      7 C          23.6506    0.8100    0.0000 C.3     1  UNL1        0.0000
      8 C           8.0622    0.8100    0.0000 C.3     1  UNL1        0.0000
      9 C           7.1962    0.3100    0.0000 C.3     1  UNL1        0.0000
     10 C          21.9186    0.8100    0.0000 C.3     1  UNL1        0.0000
     11 C          24.5167    0.3100    0.0000 C.3     1  UNL1        0.0000
     12 C           8.9282    0.3100    0.0000 C.3     1  UNL1        0.0000
     13 C           6.3301    0.8100    0.0000 C.3     1  UNL1        0.0000
     14 C          21.0526    0.3100    0.0000 C.3     1  UNL1        0.0000
     15 C          25.3827    0.8100    0.0000 C.3     1  UNL1        0.0000
     16 C           5.4641    0.3100    0.0000 C.3     1  UNL1        0.0000
     17 C           9.7942    0.8100    0.0000 C.3     1  UNL1        0.0000
     18 C          20.1865    0.8100    0.0000 C.3     1  UNL1        0.0006
     19 C          26.2487    0.3100    0.0000 C.3     1  UNL1        0.0000
     20 C           4.5981    0.8100    0.0000 C.3     1  UNL1        0.0000
     21 C          10.6603    0.3100    0.0000 C.3     1  UNL1        0.0006
     22 C          19.3205    0.3100    0.0000 C.3     1  UNL1        0.0116
     23 C          27.1147    0.8100    0.0000 C.3     1  UNL1        0.0000
     24 C           3.7321    0.3100    0.0000 C.3     1  UNL1        0.0000
     25 C          11.5263    0.8100    0.0000 C.3     1  UNL1        0.0116
     26 C          18.4545    0.8100    0.0000 C.3     1  UNL1        0.1096
     27 C          27.9808    0.3100    0.0000 C.3     1  UNL1        0.0000
     28 C           2.8660    0.8100    0.0000 C.3     1  UNL1        0.0000
     29 C          12.3923    0.3100    0.0000 C.3     1  UNL1        0.1096
     30 C          28.8468    0.8100    0.0000 C.3     1  UNL1        0.0000
     31 C           2.0000    0.3100    0.0000 C.3     1  UNL1        0.0000
     32 C          17.5885    0.3100    0.0000 C.2     1  UNL1        0.3171
     33 C          13.2583    0.8100    0.0000 C.2     1  UNL1        0.3171
     34 C          15.8564    0.3100    0.0000 C.3     1  UNL1        0.2450
     35 C          14.9904    0.8100    0.0000 C.3     1  UNL1        0.2544
     36 C          15.8564   -0.6900    0.0000 C.3     1  UNL1        0.2293
@<TRIPOS>BOND
     1     1    32    1
     2     1    34    1
     3     2    33    1
     4     2    35    1
     5     3    32    2
     6     4    33    2
     7     5    36    1
     8     6     7    1
     9     6    10    1
    10     7    11    1
    11     8     9    1
    12     8    12    1
    13     9    13    1
    14    10    14    1
    15    11    15    1
    16    12    17    1
    17    13    16    1
    18    14    18    1
    19    15    19    1
    20    16    20    1
    21    17    21    1
    22    18    22    1
    23    19    23    1
    24    20    24    1
    25    21    25    1
    26    22    26    1
    27    23    27    1
    28    24    28    1
    29    25    29    1
    30    26    32    1
    31    27    30    1
    32    28    31    1
    33    29    33    1
    34    34    35    1
    35    34    36    1
