@<TRIPOS>MOLECULE
IMPHY010718
 39 41 0 0 0
SMALL
GASTEIGER

@<TRIPOS>ATOM
      1 O           5.4641   -0.1550    0.0000 O.3     1  UNL1       -0.3255
      2 O           7.1962    2.8450    0.0000 O.3     1  UNL1       -0.3255
      3 O           7.1962   -0.1550    0.0000 O.3     1  UNL1       -0.3256
      4 O           8.9282    2.8450    0.0000 O.3     1  UNL1       -0.3256
      5 O           5.4641   -3.1550    0.0000 O.3     1  UNL1       -0.3256
      6 O           5.4641    1.8450    0.0000 O.3     1  UNL1       -0.2150
      7 O           8.9282    1.8450    0.0000 O.3     1  UNL1       -0.2177
      8 O           7.1962   -1.1550    0.0000 O.3     1  UNL1       -0.2177
      9 O           3.7321   -1.1550    0.0000 O.3     1  UNL1       -0.2150
     10 O           7.1962    4.8450    0.0000 O.3     1  UNL1       -0.2149
     11 O           3.7321   -3.1550    0.0000 O.3     1  UNL1       -0.2998
     12 O           8.9282    5.8450    0.0000 O.3     1  UNL1       -0.2174
     13 O          10.6603    4.8450    0.0000 O.3     1  UNL1       -0.2176
     14 O           8.9282   -1.1550    0.0000 O.3     1  UNL1       -0.2176
     15 O           7.1962   -4.1550    0.0000 O.3     1  UNL1       -0.2176
     16 O          10.6603    1.8450    0.0000 O.3     1  UNL1       -0.2176
     17 O           3.7321   -6.1550    0.0000 O.co2   1  UNL1       -0.6002
     18 N           2.8660   -4.6550    0.0000 N.2     1  UNL1        0.0186
     19 N           2.8660   -5.6550    0.0000 N.3     1  UNL1       -0.0610
     20 C           7.1962    1.8450    0.0000 C.3     1  UNL1        0.1858
     21 C           6.3301    1.3450    0.0000 C.3     1  UNL1        0.2374
     22 C           8.0622    1.3450    0.0000 C.3     1  UNL1        0.2113
     23 C           6.3301    0.3450    0.0000 C.3     1  UNL1        0.2694
     24 C           5.4641   -1.1550    0.0000 C.3     1  UNL1        0.1858
     25 C           8.0622    0.3450    0.0000 C.3     1  UNL1        0.1834
     26 C           6.3301   -1.6550    0.0000 C.3     1  UNL1        0.2113
     27 C           8.0622    3.3450    0.0000 C.3     1  UNL1        0.2695
     28 C           4.5981   -1.6550    0.0000 C.3     1  UNL1        0.2375
     29 C           8.0622    4.3450    0.0000 C.3     1  UNL1        0.2406
     30 C           6.3301   -2.6550    0.0000 C.3     1  UNL1        0.1834
     31 C           8.9282    4.8450    0.0000 C.3     1  UNL1        0.2198
     32 C           9.7942    4.3450    0.0000 C.3     1  UNL1        0.2144
     33 C           9.7942    3.3450    0.0000 C.3     1  UNL1        0.1835
     34 C           4.5981   -2.6550    0.0000 C.3     1  UNL1        0.2710
     35 C           8.9282   -0.1550    0.0000 C.3     1  UNL1        0.2142
     36 C           7.1962   -3.1550    0.0000 C.3     1  UNL1        0.2142
     37 C          10.6603    2.8450    0.0000 C.3     1  UNL1        0.2142
     38 C           3.7321   -4.1550    0.0000 C.3     1  UNL1        0.3468
     39 C           2.0000   -6.1550    0.0000 C.3     1  UNL1        0.4449
@<TRIPOS>UNITY_ATOM_ATTR
17 1
charge -1
19 1
charge 1
@<TRIPOS>BOND
     1     3    23    1
     2     3    25    1
     3     4    27    1
     4     4    33    1
     5     5    30    1
     6     5    34    1
     7    11    38    1
     8    14    35    1
     9    15    36    1
    10    16    37    1
    11    17    19    1
    12    18    19    2
    13    18    38    1
    14    19    39    1
    15    20     2    1
    16    20    21    1
    17    20    22    1
    18    21     6    1
    19    21    23    1
    20    22     7    1
    21    22    25    1
    22    23     1    1
    23    24     1    1
    24    24    26    1
    25    24    28    1
    26    25    35    1
    27    26     8    1
    28    26    30    1
    29    27     2    1
    30    27    29    1
    31    28     9    1
    32    28    34    1
    33    29    10    1
    34    29    31    1
    35    30    36    1
    36    31    12    1
    37    31    32    1
    38    32    13    1
    39    32    33    1
    40    33    37    1
    41    34    11    1
