@<TRIPOS>MOLECULE
IMPHY003103
 45 47 0 0 0
SMALL
GASTEIGER

@<TRIPOS>ATOM
      1 O           3.7474    3.9364    0.0000 O.co2   1  UNL1       -0.7751
      2 O           6.3639    0.3448    0.0000 O.3     1  UNL1       -0.4605
      3 O           5.7715   -1.2828    0.0000 O.2     1  UNL1       -0.2501
      4 O           9.1830   -0.6812    0.0000 O.3     1  UNL1       -0.3939
      5 N           3.8519    2.9419    0.0000 N.3     1  UNL1        0.2195
      6 C           3.1153    1.9593    0.0000 C.3     1  UNL1       -0.0180
      7 C           3.3741    0.9933    0.0000 C.3     1  UNL1       -0.0180
      8 C           1.7164    1.4504    0.0000 C.3     1  UNL1       -0.0045
      9 C           1.9752    0.4845    0.0000 C.3     1  UNL1       -0.0045
     10 C           5.1485    1.6481    0.0000 C.3     1  UNL1        0.0276
     11 C           4.5951    0.1277    0.0000 C.3     1  UNL1        0.0276
     12 C           5.4242    0.6869    0.0000 C.3     1  UNL1        0.1133
     13 C           4.7655    3.3486    0.0000 C.3     1  UNL1       -0.0434
     14 C           6.5375   -0.6400    0.0000 C.2     1  UNL1        0.3171
     15 C           7.4772   -0.9820    0.0000 C.3     1  UNL1        0.1044
     16 C           8.2432   -0.3392    0.0000 C.3     1  UNL1        0.0612
     17 C           7.6509   -1.9668    0.0000 C.ar    1  UNL1       -0.0315
     18 C           8.5906   -2.3088    0.0000 C.ar    1  UNL1       -0.0577
     19 C           6.8848   -2.6096    0.0000 C.ar    1  UNL1       -0.0577
     20 C           8.7642   -3.2936    0.0000 C.ar    1  UNL1       -0.0615
     21 C           7.0585   -3.5944    0.0000 C.ar    1  UNL1       -0.0615
     22 C           7.9982   -3.9364    0.0000 C.ar    1  UNL1       -0.0617
     23 H           2.8953    2.7803    0.0000 H       1  UNL1        0.0851
     24 H           3.5941    0.1723    0.0000 H       1  UNL1        0.0851
     25 H           1.1224    1.2727    0.0000 H       1  UNL1        0.0322
     26 H           1.5214    2.0390    0.0000 H       1  UNL1        0.0322
     27 H           2.1701   -0.1040    0.0000 H       1  UNL1        0.0322
     28 H           1.3812    0.3067    0.0000 H       1  UNL1        0.0322
     29 H           5.1536    2.2681    0.0000 H       1  UNL1        0.0356
     30 H           5.7628    1.7319    0.0000 H       1  UNL1        0.0356
     31 H           5.0010   -0.3410    0.0000 H       1  UNL1        0.0356
     32 H           4.1785   -0.3314    0.0000 H       1  UNL1        0.0356
     33 H           5.8776    1.1097    0.0000 H       1  UNL1        0.0738
     34 H           4.5133    3.9150    0.0000 H       1  UNL1        0.0777
     35 H           5.3318    3.6008    0.0000 H       1  UNL1        0.0777
     36 H           5.0176    2.7822    0.0000 H       1  UNL1        0.0777
     37 H           8.2760   -1.2727    0.0000 H       1  UNL1        0.0485
     38 H           7.7683    0.0593    0.0000 H       1  UNL1        0.0568
     39 H           8.5532    0.1977    0.0000 H       1  UNL1        0.0568
     40 H           9.0655   -1.9103    0.0000 H       1  UNL1        0.0621
     41 H           6.3022   -2.3975    0.0000 H       1  UNL1        0.0621
     42 H           9.6579   -0.2827    0.0000 H       1  UNL1        0.2094
     43 H           9.3468   -3.5057    0.0000 H       1  UNL1        0.0618
     44 H           6.5835   -3.9929    0.0000 H       1  UNL1        0.0618
     45 H           8.1058   -4.5470    0.0000 H       1  UNL1        0.0618
@<TRIPOS>UNITY_ATOM_ATTR
1 1
charge -1
5 1
charge 1
@<TRIPOS>BOND
     1     1     5    1
     2     2    12    1
     3     2    14    1
     4     3    14    2
     5     4    16    1
     6     4    42    1
     7     5     6    1
     8     5     7    1
     9     5    13    1
    10     6     8    1
    11     6    10    1
    12     6    23    1
    13     7     9    1
    14     7    11    1
    15     7    24    1
    16     8     9    1
    17     8    25    1
    18     8    26    1
    19     9    27    1
    20     9    28    1
    21    10    12    1
    22    10    29    1
    23    10    30    1
    24    11    12    1
    25    11    31    1
    26    11    32    1
    27    12    33    1
    28    13    34    1
    29    13    35    1
    30    13    36    1
    31    14    15    1
    32    15    16    1
    33    15    17    1
    34    15    37    1
    35    16    38    1
    36    16    39    1
    37    17    18   ar
    38    17    19   ar
    39    18    20   ar
    40    18    40    1
    41    19    21   ar
    42    19    41    1
    43    20    22   ar
    44    20    43    1
    45    21    22   ar
    46    21    44    1
    47    22    45    1
