@<TRIPOS>MOLECULE
IMPHY004184
 25 25 0 0 0
SMALL
GASTEIGER

@<TRIPOS>ATOM
      1 O           4.5981    1.7500    0.0000 O.3     1  UNL1       -0.4606
      2 O           3.7320    3.2500    0.0000 O.2     1  UNL1       -0.2512
      3 C           2.8660   -1.2500    0.0000 C.ar    1  UNL1       -0.0252
      4 C           2.8660   -0.2500    0.0000 C.2     1  UNL1       -0.0554
      5 C           2.0000   -1.7500    0.0000 C.ar    1  UNL1       -0.0546
      6 C           3.7320   -1.7500    0.0000 C.ar    1  UNL1       -0.0546
      7 C           3.7320    0.2500    0.0000 C.2     1  UNL1       -0.0465
      8 C           3.7320    1.2500    0.0000 C.3     1  UNL1        0.1110
      9 C           2.0000   -2.7500    0.0000 C.ar    1  UNL1       -0.0612
     10 C           3.7320   -2.7500    0.0000 C.ar    1  UNL1       -0.0612
     11 C           2.8660   -3.2500    0.0000 C.ar    1  UNL1       -0.0617
     12 C           4.5981    2.7500    0.0000 C.2     1  UNL1        0.3042
     13 C           5.4641    3.2500    0.0000 C.3     1  UNL1        0.0332
     14 H           2.3291    0.0600    0.0000 H       1  UNL1        0.0621
     15 H           3.5200    1.8326    0.0000 H       1  UNL1        0.0743
     16 H           3.1215    1.1423    0.0000 H       1  UNL1        0.0743
     17 H           4.2690   -0.0600    0.0000 H       1  UNL1        0.0606
     18 H           1.4631   -1.4400    0.0000 H       1  UNL1        0.0623
     19 H           4.2690   -1.4400    0.0000 H       1  UNL1        0.0623
     20 H           1.4631   -3.0600    0.0000 H       1  UNL1        0.0618
     21 H           4.2690   -3.0600    0.0000 H       1  UNL1        0.0618
     22 H           2.8660   -3.8700    0.0000 H       1  UNL1        0.0618
     23 H           5.7741    2.7131    0.0000 H       1  UNL1        0.0342
     24 H           6.0010    3.5600    0.0000 H       1  UNL1        0.0342
     25 H           5.1541    3.7869    0.0000 H       1  UNL1        0.0342
@<TRIPOS>BOND
     1     1     8    1
     2     1    12    1
     3     2    12    2
     4     3     4    1
     5     3     5   ar
     6     3     6   ar
     7     4     7    2
     8     4    14    1
     9     5     9   ar
    10     5    18    1
    11     6    10   ar
    12     6    19    1
    13     7     8    1
    14     7    17    1
    15     8    15    1
    16     8    16    1
    17     9    11   ar
    18     9    20    1
    19    10    11   ar
    20    10    21    1
    21    11    22    1
    22    12    13    1
    23    13    23    1
    24    13    24    1
    25    13    25    1
