@<TRIPOS>MOLECULE
IMPHY000391
 70 74 0 0 0
SMALL
GASTEIGER

@<TRIPOS>ATOM
      1 O           7.3380    2.4227    0.0000 O.3     1  UNL1       -0.3672
      2 O           7.9657   -0.4241    0.0000 O.3     1  UNL1       -0.4550
      3 O           8.9022    1.7999    0.0000 O.3     1  UNL1       -0.3817
      4 O           5.3194    3.1263    0.0000 O.3     1  UNL1       -0.3888
      5 O           6.1733   -1.4430    0.0000 O.3     1  UNL1       -0.4540
      6 O           7.0514    4.1263    0.0000 O.3     1  UNL1       -0.3863
      7 O           9.6792    1.6618    0.0000 O.3     1  UNL1       -0.3781
      8 O           4.3678    2.6833    0.0000 O.2     1  UNL1       -0.2941
      9 O           2.5405    1.6656    0.0000 O.3     1  UNL1       -0.3843
     10 O           9.7272   -0.3767    0.0000 O.2     1  UNL1       -0.2478
     11 O           7.9053   -1.4363    0.0000 O.2     1  UNL1       -0.2453
     12 C           7.0514    1.1263    0.0000 C.3     1  UNL1        0.0751
     13 C           6.1854    1.6263    0.0000 C.3     1  UNL1        0.0142
     14 C           7.9174    1.6263    0.0000 C.3     1  UNL1        0.1446
     15 C           5.2754    1.1194    0.0000 C.3     1  UNL1        0.0413
     16 C           7.9174    2.6263    0.0000 C.3     1  UNL1        0.1270
     17 C           7.0675    0.0848    0.0000 C.3     1  UNL1        0.1510
     18 C           5.2674    0.0778    0.0000 C.3     1  UNL1        0.0149
     19 C           6.1854    2.6263    0.0000 C.3     1  UNL1        0.0883
     20 C           6.9380    1.7299    0.0000 C.3     1  UNL1        0.0610
     21 C           6.1694   -0.4430    0.0000 C.3     1  UNL1        0.1447
     22 C           7.0514    3.1263    0.0000 C.3     1  UNL1        0.1127
     23 C           8.8272    1.1383    0.0000 C.3     1  UNL1        0.1839
     24 C           4.3319   -0.4719    0.0000 C.3     1  UNL1       -0.0339
     25 C           4.3486    1.6835    0.0000 C.2     1  UNL1        0.1681
     26 C           4.9406    2.0617    0.0000 C.3     1  UNL1       -0.0520
     27 C           8.4174    3.4923    0.0000 C.3     1  UNL1       -0.0304
     28 C           3.3923    0.0706    0.0000 C.3     1  UNL1       -0.0169
     29 C           3.4007    1.1556    0.0000 C.3     1  UNL1        0.1138
     30 C           8.8515    0.1061    0.0000 C.2     1  UNL1        0.3394
     31 C           4.3358   -1.4719    0.0000 C.3     1  UNL1       -0.0619
     32 C           7.0412   -1.9396    0.0000 C.2     1  UNL1        0.3349
     33 C           7.0451   -2.9396    0.0000 C.2     1  UNL1        0.0293
     34 C           6.1810   -3.4430    0.0000 C.3     1  UNL1       -0.0333
     35 C           7.9130   -3.4363    0.0000 C.2     1  UNL1       -0.0774
     36 C           7.9169   -4.4363    0.0000 C.3     1  UNL1       -0.0461
     37 H           5.4493    2.0513    0.0000 H       1  UNL1        0.0344
     38 H           7.0742   -0.7652    0.0000 H       1  UNL1        0.0779
     39 H           5.2706   -0.7722    0.0000 H       1  UNL1        0.0350
     40 H           6.1854    3.2463    0.0000 H       1  UNL1        0.0623
     41 H           6.5109    2.1792    0.0000 H       1  UNL1        0.0568
     42 H           6.3861    1.4475    0.0000 H       1  UNL1        0.0568
     43 H           6.7082   -0.7499    0.0000 H       1  UNL1        0.0775
     44 H           7.5884    3.4363    0.0000 H       1  UNL1        0.0649
     45 H           9.3719    0.8420    0.0000 H       1  UNL1        0.0741
     46 H           4.8707   -0.7788    0.0000 H       1  UNL1        0.0303
     47 H           5.5248    2.2693    0.0000 H       1  UNL1        0.0239
     48 H           4.7331    2.6460    0.0000 H       1  UNL1        0.0239
     49 H           4.3564    1.8542    0.0000 H       1  UNL1        0.0239
     50 H           8.9544    3.1823    0.0000 H       1  UNL1        0.0259
     51 H           8.7274    4.0292    0.0000 H       1  UNL1        0.0259
     52 H           7.8805    3.8023    0.0000 H       1  UNL1        0.0259
     53 H           2.7823    0.1814    0.0000 H       1  UNL1        0.0297
     54 H           3.1788   -0.5115    0.0000 H       1  UNL1        0.0297
     55 H           9.1143    2.3825    0.0000 H       1  UNL1        0.2104
     56 H           3.4090    1.7755    0.0000 H       1  UNL1        0.0673
     57 H           5.3194    3.7463    0.0000 H       1  UNL1        0.2099
     58 H           3.7158   -1.4743    0.0000 H       1  UNL1        0.0233
     59 H           4.3382   -2.0919    0.0000 H       1  UNL1        0.0233
     60 H           4.9558   -1.4695    0.0000 H       1  UNL1        0.0233
     61 H           7.5884    4.4363    0.0000 H       1  UNL1        0.2100
     62 H          10.2245    1.3666    0.0000 H       1  UNL1        0.2106
     63 H           2.0000    1.3618    0.0000 H       1  UNL1        0.2104
     64 H           5.8689   -2.9072    0.0000 H       1  UNL1        0.0280
     65 H           5.6453   -3.7550    0.0000 H       1  UNL1        0.0280
     66 H           6.4931   -3.9787    0.0000 H       1  UNL1        0.0280
     67 H           8.4488   -3.1242    0.0000 H       1  UNL1        0.0574
     68 H           7.2969   -4.4387    0.0000 H       1  UNL1        0.0272
     69 H           7.9193   -5.0563    0.0000 H       1  UNL1        0.0272
     70 H           8.5369   -4.4339    0.0000 H       1  UNL1        0.0272
@<TRIPOS>BOND
     1     1    16    1
     2     1    20    1
     3     2    17    1
     4     2    30    1
     5    14     3    1
     6     3    55    1
     7    19     4    1
     8     4    57    1
     9    21     5    1
    10     5    32    1
    11    22     6    1
    12     6    61    1
    13    23     7    1
    14     7    62    1
    15     8    25    2
    16    29     9    1
    17     9    63    1
    18    10    30    2
    19    11    32    2
    20    12    13    1
    21    12    14    1
    22    12    17    1
    23    12    20    1
    24    13    15    1
    25    13    19    1
    26    13    37    1
    27    14    16    1
    28    14    23    1
    29    15    18    1
    30    15    25    1
    31    15    26    1
    32    16    22    1
    33    16    27    1
    34    17    21    1
    35    17    38    1
    36    18    21    1
    37    18    24    1
    38    18    39    1
    39    19    22    1
    40    19    40    1
    41    20    41    1
    42    20    42    1
    43    21    43    1
    44    22    44    1
    45    23    30    1
    46    23    45    1
    47    24    28    1
    48    24    31    1
    49    24    46    1
    50    25    29    1
    51    26    47    1
    52    26    48    1
    53    26    49    1
    54    27    50    1
    55    27    51    1
    56    27    52    1
    57    28    29    1
    58    28    53    1
    59    28    54    1
    60    29    56    1
    61    31    58    1
    62    31    59    1
    63    31    60    1
    64    32    33    1
    65    33    34    1
    66    33    35    2
    67    34    64    1
    68    34    65    1
    69    34    66    1
    70    35    36    1
    71    35    67    1
    72    36    68    1
    73    36    69    1
    74    36    70    1
