@<TRIPOS>MOLECULE
IMPHY004219
 57 58 0 0 0
SMALL
GASTEIGER

@<TRIPOS>ATOM
      1 O           4.2690   -1.1440    0.0000 O.3     1  UNL1       -0.3405
      2 O           7.7331    0.8560    0.0000 O.3     1  UNL1       -0.3797
      3 O           6.0010   -1.1440    0.0000 O.3     1  UNL1       -0.3416
      4 O           4.2690   -4.1440    0.0000 O.3     1  UNL1       -0.3864
      5 O           2.5369   -3.1440    0.0000 O.3     1  UNL1       -0.3865
      6 O           6.0010   -3.1440    0.0000 O.3     1  UNL1       -0.3841
      7 O           9.2331    4.4540    0.0000 O.2     1  UNL1       -0.2927
      8 O           2.5369   -0.1440    0.0000 O.3     1  UNL1       -0.3924
      9 C           8.7331    1.8560    0.0000 C.3     1  UNL1        0.0083
     10 C           7.7331    1.8560    0.0000 C.3     1  UNL1        0.1108
     11 C           9.2331    2.7220    0.0000 C.3     1  UNL1        0.0182
     12 C           7.2331    2.7220    0.0000 C.2     1  UNL1       -0.0339
     13 C           9.5991    1.3560    0.0000 C.3     1  UNL1       -0.0562
     14 C           9.0752    0.9163    0.0000 C.3     1  UNL1       -0.0562
     15 C           4.2690   -3.1440    0.0000 C.3     1  UNL1        0.1141
     16 C           5.1350   -2.6440    0.0000 C.3     1  UNL1        0.1341
     17 C           3.4030   -2.6440    0.0000 C.3     1  UNL1        0.1119
     18 C           5.1350   -1.6440    0.0000 C.3     1  UNL1        0.1885
     19 C           3.4030   -1.6440    0.0000 C.3     1  UNL1        0.1130
     20 C           6.8671    1.3560    0.0000 C.2     1  UNL1       -0.0498
     21 C           8.7331    3.5880    0.0000 C.2     1  UNL1        0.1568
     22 C           7.7331    3.5880    0.0000 C.2     1  UNL1       -0.0172
     23 C           6.0010   -0.1440    0.0000 C.3     1  UNL1        0.0772
     24 C           6.8671    0.3560    0.0000 C.2     1  UNL1       -0.0567
     25 C           6.2331    2.7220    0.0000 C.3     1  UNL1       -0.0404
     26 C           2.5369   -1.1440    0.0000 C.3     1  UNL1        0.0730
     27 C           5.1350    0.3560    0.0000 C.3     1  UNL1       -0.0350
     28 H           9.7080    2.3235    0.0000 H       1  UNL1        0.0351
     29 H           9.7080    3.1205    0.0000 H       1  UNL1        0.0351
     30 H           4.8059   -3.4540    0.0000 H       1  UNL1        0.0648
     31 H           9.2891    0.8190    0.0000 H       1  UNL1        0.0236
     32 H          10.1360    1.0460    0.0000 H       1  UNL1        0.0236
     33 H           9.9091    1.8929    0.0000 H       1  UNL1        0.0236
     34 H           8.4926    0.7042    0.0000 H       1  UNL1        0.0236
     35 H           9.2873    0.3337    0.0000 H       1  UNL1        0.0236
     36 H           9.6578    1.1284    0.0000 H       1  UNL1        0.0236
     37 H           3.4030   -3.2640    0.0000 H       1  UNL1        0.0647
     38 H           5.6720   -2.3340    0.0000 H       1  UNL1        0.0671
     39 H           5.1350   -1.0240    0.0000 H       1  UNL1        0.0938
     40 H           3.4030   -1.0240    0.0000 H       1  UNL1        0.0647
     41 H           6.3301    1.6660    0.0000 H       1  UNL1        0.0601
     42 H           7.4231    4.1250    0.0000 H       1  UNL1        0.0653
     43 H           6.5380   -0.4540    0.0000 H       1  UNL1        0.0638
     44 H           7.4040    0.0460    0.0000 H       1  UNL1        0.0595
     45 H           8.2700    0.5460    0.0000 H       1  UNL1        0.2111
     46 H           6.2331    3.3420    0.0000 H       1  UNL1        0.0275
     47 H           5.6131    2.7220    0.0000 H       1  UNL1        0.0275
     48 H           6.2331    2.1020    0.0000 H       1  UNL1        0.0275
     49 H           1.9264   -1.0364    0.0000 H       1  UNL1        0.0584
     50 H           2.3249   -1.7266    0.0000 H       1  UNL1        0.0584
     51 H           3.7320   -4.4540    0.0000 H       1  UNL1        0.2100
     52 H           2.0000   -2.8340    0.0000 H       1  UNL1        0.2100
     53 H           6.5380   -2.8340    0.0000 H       1  UNL1        0.2101
     54 H           5.4450    0.8929    0.0000 H       1  UNL1        0.0258
     55 H           4.5981    0.6660    0.0000 H       1  UNL1        0.0258
     56 H           4.8250   -0.1810    0.0000 H       1  UNL1        0.0258
     57 H           2.0000    0.1660    0.0000 H       1  UNL1        0.2095
@<TRIPOS>BOND
     1     1    18    1
     2     1    19    1
     3    10     2    1
     4     2    45    1
     5    18     3    1
     6    23     3    1
     7    15     4    1
     8     4    51    1
     9    17     5    1
    10     5    52    1
    11    16     6    1
    12     6    53    1
    13     7    21    2
    14     8    26    1
    15     8    57    1
    16     9    10    1
    17     9    11    1
    18     9    13    1
    19     9    14    1
    20    10    12    1
    21    10    20    1
    22    11    21    1
    23    11    28    1
    24    11    29    1
    25    12    22    2
    26    12    25    1
    27    13    31    1
    28    13    32    1
    29    13    33    1
    30    14    34    1
    31    14    35    1
    32    14    36    1
    33    15    16    1
    34    15    17    1
    35    15    30    1
    36    16    18    1
    37    16    38    1
    38    17    19    1
    39    17    37    1
    40    18    39    1
    41    19    26    1
    42    19    40    1
    43    20    24    2
    44    20    41    1
    45    21    22    1
    46    22    42    1
    47    23    24    1
    48    23    27    1
    49    23    43    1
    50    24    44    1
    51    25    46    1
    52    25    47    1
    53    25    48    1
    54    26    49    1
    55    26    50    1
    56    27    54    1
    57    27    55    1
    58    27    56    1
