@<TRIPOS>MOLECULE
IMPHY014277
 40 42 0 0 0
SMALL
GASTEIGER

@<TRIPOS>ATOM
      1 O           7.2806    0.5298    0.0000 O.3     1  UNL1       -0.3846
      2 O           3.7230   -0.4117    0.0000 O.3     1  UNL1       -0.4564
      3 O           8.0559   -0.4918    0.0000 O.3     1  UNL1       -0.3885
      4 O           4.8930   -2.0150    0.0000 O.2     1  UNL1       -0.2965
      5 O           2.0000    0.0205    0.0000 O.2     1  UNL1       -0.2453
      6 C           5.4786   -0.3379    0.0000 C.3     1  UNL1        0.0948
      7 C           6.3796    0.0960    0.0000 C.3     1  UNL1        0.1101
      8 C           4.5777    0.0960    0.0000 C.3     1  UNL1        0.1251
      9 C           6.6021    1.0709    0.0000 C.3     1  UNL1       -0.0114
     10 C           7.0647   -0.6243    0.0000 C.3     1  UNL1        0.0918
     11 C           4.3551    1.0709    0.0000 C.3     1  UNL1        0.0285
     12 C           5.6146   -1.3227    0.0000 C.2     1  UNL1        0.1481
     13 C           5.9786    1.8527    0.0000 C.3     1  UNL1       -0.0471
     14 C           6.5929   -1.4993    0.0000 C.3     1  UNL1        0.0354
     15 C           4.9786    1.8527    0.0000 C.3     1  UNL1       -0.0423
     16 C           4.5777   -0.7718    0.0000 C.3     1  UNL1       -0.0466
     17 C           7.5770    1.2934    0.0000 C.3     1  UNL1       -0.0597
     18 C           3.3648    1.1574    0.0000 C.2     1  UNL1        0.0361
     19 C           2.9749    0.2430    0.0000 C.2     1  UNL1        0.3353
     20 C           2.8504    2.0150    0.0000 C.2     1  UNL1       -0.0883
     21 H           5.2422    0.6259    0.0000 H       1  UNL1        0.0751
     22 H           6.8069    1.6561    0.0000 H       1  UNL1        0.0327
     23 H           7.2707   -0.0396    0.0000 H       1  UNL1        0.0626
     24 H           4.0200    1.8520    0.0000 H       1  UNL1        0.0387
     25 H           6.5372    2.1217    0.0000 H       1  UNL1        0.0269
     26 H           5.8407    2.4572    0.0000 H       1  UNL1        0.0269
     27 H           6.4192   -2.0945    0.0000 H       1  UNL1        0.0368
     28 H           7.1665   -1.7346    0.0000 H       1  UNL1        0.0368
     29 H           5.1166    2.4572    0.0000 H       1  UNL1        0.0272
     30 H           4.4200    2.1217    0.0000 H       1  UNL1        0.0272
     31 H           4.3086   -0.2132    0.0000 H       1  UNL1        0.0241
     32 H           4.0191   -1.0408    0.0000 H       1  UNL1        0.0241
     33 H           4.8467   -1.3304    0.0000 H       1  UNL1        0.0241
     34 H           7.7150    0.6889    0.0000 H       1  UNL1        0.0233
     35 H           8.1815    1.4314    0.0000 H       1  UNL1        0.0233
     36 H           7.4391    1.8979    0.0000 H       1  UNL1        0.0233
     37 H           7.7928    0.1806    0.0000 H       1  UNL1        0.2103
     38 H           8.4343   -0.9829    0.0000 H       1  UNL1        0.2099
     39 H           3.1514    2.5570    0.0000 H       1  UNL1        0.0540
     40 H           2.2305    2.0046    0.0000 H       1  UNL1        0.0540
@<TRIPOS>BOND
     1     7     1    1
     2     1    37    1
     3     2     8    1
     4     2    19    1
     5    10     3    1
     6     3    38    1
     7     4    12    2
     8     5    19    2
     9     6     7    1
    10     6     8    1
    11     6    12    1
    12     6    16    1
    13     7     9    1
    14     7    10    1
    15     8    11    1
    16     8    21    1
    17     9    13    1
    18     9    17    1
    19     9    22    1
    20    10    14    1
    21    10    23    1
    22    11    15    1
    23    11    18    1
    24    11    24    1
    25    12    14    1
    26    13    15    1
    27    13    25    1
    28    13    26    1
    29    14    27    1
    30    14    28    1
    31    15    29    1
    32    15    30    1
    33    16    31    1
    34    16    32    1
    35    16    33    1
    36    17    34    1
    37    17    35    1
    38    17    36    1
    39    18    19    1
    40    18    20    2
    41    20    39    1
    42    20    40    1
