@<TRIPOS>MOLECULE
IMPHY000770
 110 118 0 0 0
SMALL
GASTEIGER

@<TRIPOS>ATOM
      1 O          15.1748   -0.2408    0.0000 O.3     1  UNL1       -0.3672
      2 O          11.6044   -2.2077    0.0000 O.3     1  UNL1       -0.4609
      3 O           7.1961    2.3857    0.0000 O.3     1  UNL1       -0.3449
      4 O          17.0912    0.1308    0.0000 O.3     1  UNL1       -0.3621
      5 O           6.3243    0.8890    0.0000 O.3     1  UNL1       -0.3460
      6 O           9.8723   -2.2011    0.0000 O.2     1  UNL1       -0.2512
      7 O           5.4679    3.3923    0.0000 O.3     1  UNL1       -0.3830
      8 O           3.7320    2.3990    0.0000 O.3     1  UNL1       -0.4560
      9 O           3.7243    0.3990    0.0000 O.3     1  UNL1       -0.3857
     10 O           2.8602    0.9024    0.0000 O.2     1  UNL1       -0.2512
     11 C          10.7262    0.3615    0.0000 C.3     1  UNL1       -0.0161
     12 C           9.8602    0.8615    0.0000 C.3     1  UNL1       -0.0192
     13 C           9.8600   -0.1389    0.0000 C.3     1  UNL1       -0.0400
     14 C          11.5923    0.8615    0.0000 C.3     1  UNL1       -0.0286
     15 C          12.5023    0.3547    0.0000 C.3     1  UNL1       -0.0173
     16 C           9.8602    1.8615    0.0000 C.3     1  UNL1       -0.0273
     17 C          12.5103   -0.6869    0.0000 C.3     1  UNL1        0.0161
     18 C          10.7102   -0.6800    0.0000 C.3     1  UNL1       -0.0087
     19 C           8.9663    0.3268    0.0000 C.3     1  UNL1       -0.0442
     20 C          11.6082   -1.2078    0.0000 C.3     1  UNL1        0.1098
     21 C          11.5923    1.8615    0.0000 C.3     1  UNL1       -0.0489
     22 C          10.7262    2.3615    0.0000 C.3     1  UNL1       -0.0488
     23 C          13.4983   -0.9967    0.0000 C.3     1  UNL1       -0.0027
     24 C           8.9663    2.3962    0.0000 C.3     1  UNL1       -0.0052
     25 C          13.4854    0.6797    0.0000 C.3     1  UNL1       -0.0200
     26 C          14.0998   -0.1539    0.0000 C.3     1  UNL1        0.0637
     27 C           8.0602    0.8407    0.0000 C.3     1  UNL1       -0.0255
     28 C           8.0602    1.8823    0.0000 C.3     1  UNL1        0.0672
     29 C          12.4946    1.3546    0.0000 C.3     1  UNL1       -0.0586
     30 C          13.9303   -1.9850    0.0000 C.3     1  UNL1       -0.0354
     31 C          12.5180   -1.6869    0.0000 C.3     1  UNL1       -0.0553
     32 C          15.6295   -1.2189    0.0000 C.3     1  UNL1        0.0989
     33 C          15.0030   -2.0969    0.0000 C.3     1  UNL1       -0.0182
     34 C           8.4763    3.2679    0.0000 C.3     1  UNL1       -0.0572
     35 C           9.4762    3.2564    0.0000 C.3     1  UNL1       -0.0572
     36 C          16.2893   -0.4675    0.0000 C.3     1  UNL1        0.1169
     37 C          17.2079   -0.8628    0.0000 C.3     1  UNL1        0.0961
     38 C          16.1402   -2.0786    0.0000 C.3     1  UNL1       -0.0185
     39 C          13.3401   -2.7923    0.0000 C.3     1  UNL1       -0.0620
     40 C          17.1157   -1.8586    0.0000 C.3     1  UNL1       -0.0188
     41 C          10.7364   -2.7044    0.0000 C.2     1  UNL1        0.3042
     42 C          18.1264   -1.2582    0.0000 C.3     1  UNL1       -0.0333
     43 C           6.3282    1.8890    0.0000 C.3     1  UNL1        0.1889
     44 C          10.7326   -3.7044    0.0000 C.3     1  UNL1        0.0332
     45 C           5.4641    2.3923    0.0000 C.3     1  UNL1        0.1451
     46 C           4.5961    1.8957    0.0000 C.3     1  UNL1        0.1613
     47 C           5.4564    0.3923    0.0000 C.3     1  UNL1        0.0802
     48 C           4.5923    0.8957    0.0000 C.3     1  UNL1        0.1180
     49 C           2.8641    1.9024    0.0000 C.2     1  UNL1        0.3044
     50 C           2.0000    2.4057    0.0000 C.3     1  UNL1        0.0332
     51 H           9.2494   -0.2465    0.0000 H       1  UNL1        0.0276
     52 H          10.0721   -0.7215    0.0000 H       1  UNL1        0.0276
     53 H          12.3251    1.2922    0.0000 H       1  UNL1        0.0312
     54 H           9.8668    2.7115    0.0000 H       1  UNL1        0.0312
     55 H          10.1010   -0.5645    0.0000 H       1  UNL1        0.0307
     56 H          10.4922   -1.2604    0.0000 H       1  UNL1        0.0307
     57 H           8.5726   -0.1522    0.0000 H       1  UNL1        0.0272
     58 H           9.3709   -0.1429    0.0000 H       1  UNL1        0.0272
     59 H          11.0695   -1.5146    0.0000 H       1  UNL1        0.0740
     60 H          12.2028    1.7538    0.0000 H       1  UNL1        0.0268
     61 H          11.8043    2.4441    0.0000 H       1  UNL1        0.0268
     62 H          11.1248    2.8365    0.0000 H       1  UNL1        0.0268
     63 H          10.3277    2.8365    0.0000 H       1  UNL1        0.0268
     64 H          12.9307   -1.6294    0.0000 H       1  UNL1        0.0335
     65 H          14.0204    0.9930    0.0000 H       1  UNL1        0.0296
     66 H          13.2300    1.2446    0.0000 H       1  UNL1        0.0296
     67 H          14.5134    0.5887    0.0000 H       1  UNL1        0.0599
     68 H           7.4494    0.9468    0.0000 H       1  UNL1        0.0290
     69 H           7.8512    0.2570    0.0000 H       1  UNL1        0.0290
     70 H           8.0638    2.5023    0.0000 H       1  UNL1        0.0602
     71 H          13.1145    1.3594    0.0000 H       1  UNL1        0.0235
     72 H          12.4898    1.9746    0.0000 H       1  UNL1        0.0235
     73 H          11.8746    1.3498    0.0000 H       1  UNL1        0.0235
     74 H          14.1818   -2.5517    0.0000 H       1  UNL1        0.0303
     75 H          11.8980   -1.6917    0.0000 H       1  UNL1        0.0236
     76 H          12.5228   -2.3069    0.0000 H       1  UNL1        0.0236
     77 H          13.1380   -1.6821    0.0000 H       1  UNL1        0.0236
     78 H          14.8342   -2.6934    0.0000 H       1  UNL1        0.0296
     79 H          15.5619   -2.3653    0.0000 H       1  UNL1        0.0296
     80 H          10.0096    2.9402    0.0000 H       1  UNL1        0.0236
     81 H           9.7924    3.7897    0.0000 H       1  UNL1        0.0236
     82 H           8.9429    3.5725    0.0000 H       1  UNL1        0.0236
     83 H           9.0168    3.5717    0.0000 H       1  UNL1        0.0236
     84 H           8.1726    3.8084    0.0000 H       1  UNL1        0.0236
     85 H           7.9358    2.9642    0.0000 H       1  UNL1        0.0236
     86 H          15.7127    0.1570    0.0000 H       1  UNL1        0.0654
     87 H          15.5770   -2.3378    0.0000 H       1  UNL1        0.0295
     88 H          16.3391   -2.6658    0.0000 H       1  UNL1        0.0295
     89 H          12.8396   -2.4264    0.0000 H       1  UNL1        0.0233
     90 H          12.9741   -3.2928    0.0000 H       1  UNL1        0.0233
     91 H          13.8406   -3.1582    0.0000 H       1  UNL1        0.0233
     92 H          17.1882   -2.4743    0.0000 H       1  UNL1        0.0295
     93 H          17.7357   -1.8509    0.0000 H       1  UNL1        0.0295
     94 H          17.8813   -1.8277    0.0000 H       1  UNL1        0.0258
     95 H          18.6959   -1.5033    0.0000 H       1  UNL1        0.0258
     96 H          18.3715   -0.6887    0.0000 H       1  UNL1        0.0258
     97 H           6.3306    2.5090    0.0000 H       1  UNL1        0.0938
     98 H          10.1126   -3.7020    0.0000 H       1  UNL1        0.0342
     99 H          10.7302   -4.3244    0.0000 H       1  UNL1        0.0342
    100 H          11.3526   -3.7068    0.0000 H       1  UNL1        0.0342
    101 H           4.9283    2.7044    0.0000 H       1  UNL1        0.0682
    102 H           5.1602    2.5157    0.0000 H       1  UNL1        0.0789
    103 H           5.0560   -0.0811    0.0000 H       1  UNL1        0.0588
    104 H           5.8531   -0.0841    0.0000 H       1  UNL1        0.0588
    105 H           4.0565    1.2078    0.0000 H       1  UNL1        0.0654
    106 H           4.9322    3.7044    0.0000 H       1  UNL1        0.2102
    107 H           3.7219   -0.2210    0.0000 H       1  UNL1        0.2100
    108 H           2.3121    2.9414    0.0000 H       1  UNL1        0.0342
    109 H           1.4643    2.7178    0.0000 H       1  UNL1        0.0342
    110 H           1.6879    1.8700    0.0000 H       1  UNL1        0.0342
@<TRIPOS>BOND
     1     1    26    1
     2    32     1    1
     3    20     2    1
     4     2    41    1
     5    28     3    1
     6    43     3    1
     7     4    36    1
     8     4    37    1
     9     5    43    1
    10     5    47    1
    11     6    41    2
    12    45     7    1
    13     7   106    1
    14    46     8    1
    15     8    49    1
    16    48     9    1
    17     9   107    1
    18    10    49    2
    19    11    12    1
    20    11    13    1
    21    11    14    1
    22    11    18    1
    23    12    13    1
    24    12    16    1
    25    12    19    1
    26    13    51    1
    27    13    52    1
    28    14    15    1
    29    14    21    1
    30    14    53    1
    31    15    17    1
    32    15    25    1
    33    15    29    1
    34    16    22    1
    35    16    24    1
    36    16    54    1
    37    17    20    1
    38    17    23    1
    39    17    31    1
    40    18    20    1
    41    18    55    1
    42    18    56    1
    43    19    27    1
    44    19    57    1
    45    19    58    1
    46    20    59    1
    47    21    22    1
    48    21    60    1
    49    21    61    1
    50    22    62    1
    51    22    63    1
    52    23    26    1
    53    23    30    1
    54    23    64    1
    55    24    28    1
    56    24    34    1
    57    24    35    1
    58    25    26    1
    59    25    65    1
    60    25    66    1
    61    26    67    1
    62    27    28    1
    63    27    68    1
    64    27    69    1
    65    28    70    1
    66    29    71    1
    67    29    72    1
    68    29    73    1
    69    30    33    1
    70    30    39    1
    71    30    74    1
    72    31    75    1
    73    31    76    1
    74    31    77    1
    75    32    33    1
    76    32    36    1
    77    32    38    1
    78    33    78    1
    79    33    79    1
    80    34    83    1
    81    34    84    1
    82    34    85    1
    83    35    80    1
    84    35    81    1
    85    35    82    1
    86    36    37    1
    87    36    86    1
    88    37    40    1
    89    37    42    1
    90    38    40    1
    91    38    87    1
    92    38    88    1
    93    39    89    1
    94    39    90    1
    95    39    91    1
    96    40    92    1
    97    40    93    1
    98    41    44    1
    99    42    94    1
   100    42    95    1
   101    42    96    1
   102    43    45    1
   103    43    97    1
   104    44    98    1
   105    44    99    1
   106    44   100    1
   107    45    46    1
   108    45   101    1
   109    46    48    1
   110    46   102    1
   111    47    48    1
   112    47   103    1
   113    47   104    1
   114    48   105    1
   115    49    50    1
   116    50   108    1
   117    50   109    1
   118    50   110    1
