@<TRIPOS>MOLECULE
IMPHY008077
 18 19 0 0 0
SMALL
GASTEIGER

@<TRIPOS>ATOM
      1 O           2.0000   -0.0173    0.0000 O.3     1  UNL1       -0.4608
      2 O           2.8660   -1.5173    0.0000 O.2     1  UNL1       -0.2449
      3 N           5.5321   -0.0381    0.0000 N.ar    1  UNL1       -0.2624
      4 C           2.8660    1.4827    0.0000 C.3     1  UNL1        0.0076
      5 C           3.7320    0.9827    0.0000 C.ar    1  UNL1       -0.0273
      6 C           2.0000    0.9827    0.0000 C.3     1  UNL1        0.0968
      7 C           3.7320   -0.0173    0.0000 C.ar    1  UNL1        0.0803
      8 C           4.6260    1.5173    0.0000 C.ar    1  UNL1       -0.0395
      9 C           2.8660   -0.5173    0.0000 C.2     1  UNL1        0.3409
     10 C           4.6260   -0.5520    0.0000 C.ar    1  UNL1        0.0418
     11 C           5.5321    1.0035    0.0000 C.ar    1  UNL1        0.0279
     12 H           3.2646    1.9576    0.0000 H       1  UNL1        0.0346
     13 H           2.4675    1.9576    0.0000 H       1  UNL1        0.0346
     14 H           1.7880    1.5653    0.0000 H       1  UNL1        0.0701
     15 H           1.3894    0.8750    0.0000 H       1  UNL1        0.0701
     16 H           4.6188    2.1373    0.0000 H       1  UNL1        0.0636
     17 H           4.6188   -1.1720    0.0000 H       1  UNL1        0.0838
     18 H           6.0678    1.3156    0.0000 H       1  UNL1        0.0829
@<TRIPOS>BOND
     1     1     6    1
     2     1     9    1
     3     2     9    2
     4     3    10   ar
     5     3    11   ar
     6     4     5    1
     7     4     6    1
     8     4    12    1
     9     4    13    1
    10     5     7   ar
    11     5     8   ar
    12     6    14    1
    13     6    15    1
    14     7     9    1
    15     7    10   ar
    16     8    11   ar
    17     8    16    1
    18    10    17    1
    19    11    18    1
