@<TRIPOS>MOLECULE
IMPHY001255
 100 105 0 0 0
SMALL
GASTEIGER

@<TRIPOS>ATOM
      1 O          10.9848    0.8347    0.0000 O.3     1  UNL1       -0.4576
      2 O           3.3248   -1.3769    0.0000 O.3     1  UNL1       -0.3880
      3 O          11.6174   -1.6254    0.0000 O.3     1  UNL1       -0.3943
      4 O           3.8493   -5.3514    0.0000 O.3     1  UNL1       -0.4802
      5 O           5.5813   -5.3647    0.0000 O.2     1  UNL1       -0.2504
      6 O          10.1130    2.3314    0.0000 O.2     1  UNL1       -0.2456
      7 O          15.2976    5.3514    0.0000 O.3     1  UNL1       -0.5068
      8 C           7.3770   -2.3097    0.0000 C.3     1  UNL1       -0.0194
      9 C           7.3770   -1.3097    0.0000 C.3     1  UNL1       -0.0257
     10 C           8.2709   -0.7750    0.0000 C.3     1  UNL1       -0.0248
     11 C           6.5109   -2.8097    0.0000 C.3     1  UNL1       -0.0050
     12 C           9.1770   -1.2888    0.0000 C.3     1  UNL1       -0.0245
     13 C           8.2709   -2.8443    0.0000 C.3     1  UNL1       -0.0463
     14 C           5.6449   -2.3097    0.0000 C.2     1  UNL1       -0.0602
     15 C           9.1770   -2.3305    0.0000 C.3     1  UNL1       -0.0485
     16 C          10.1208   -0.7536    0.0000 C.3     1  UNL1        0.0313
     17 C           4.7349   -2.8165    0.0000 C.3     1  UNL1        0.0252
     18 C           6.5109   -0.8097    0.0000 C.3     1  UNL1       -0.0306
     19 C           6.5270   -3.8512    0.0000 C.3     1  UNL1       -0.0424
     20 C           8.2458    0.3097    0.0000 C.3     1  UNL1       -0.0437
     21 C           4.7269   -3.8581    0.0000 C.3     1  UNL1        0.0767
     22 C           5.6290   -4.3789    0.0000 C.3     1  UNL1       -0.0358
     23 C           7.7191   -3.2493    0.0000 C.3     1  UNL1       -0.0585
     24 C          10.1208    0.3314    0.0000 C.3     1  UNL1        0.1111
     25 C           5.6449   -1.3097    0.0000 C.2     1  UNL1       -0.0835
     26 C           7.4010   -0.2817    0.0000 C.3     1  UNL1       -0.0590
     27 C           3.8081   -2.2524    0.0000 C.3     1  UNL1        0.0733
     28 C           9.1770    0.8666    0.0000 C.3     1  UNL1       -0.0145
     29 C           7.1537   -3.5757    0.0000 C.3     1  UNL1       -0.0553
     30 C           3.7914   -4.4078    0.0000 C.3     1  UNL1       -0.0363
     31 C           2.8602   -2.7804    0.0000 C.3     1  UNL1       -0.0146
     32 C          11.1207   -0.7575    0.0000 C.3     1  UNL1        0.0532
     33 C          10.6174   -1.6216    0.0000 C.3     1  UNL1       -0.0538
     34 C           2.8518   -3.8653    0.0000 C.3     1  UNL1       -0.0468
     35 C           4.7192   -4.8581    0.0000 C.2     1  UNL1        0.3116
     36 C           4.3247   -1.3962    0.0000 C.3     1  UNL1       -0.0352
     37 C           2.0000   -2.2704    0.0000 C.3     1  UNL1       -0.0598
     38 C          10.9810    1.8347    0.0000 C.2     1  UNL1        0.3322
     39 C          11.8451    2.3380    0.0000 C.2     1  UNL1        0.0231
     40 C          11.8412    3.3380    0.0000 C.2     1  UNL1       -0.0478
     41 C          12.7053    3.8414    0.0000 C.ar    1  UNL1       -0.0246
     42 C          13.5733    3.3447    0.0000 C.ar    1  UNL1       -0.0511
     43 C          12.7015    4.8414    0.0000 C.ar    1  UNL1       -0.0511
     44 C          14.4374    3.8480    0.0000 C.ar    1  UNL1       -0.0196
     45 C          13.5656    5.3447    0.0000 C.ar    1  UNL1       -0.0196
     46 C          14.4335    4.8480    0.0000 C.ar    1  UNL1        0.1169
     47 H           8.1163   -1.7290    0.0000 H       1  UNL1        0.0315
     48 H           9.9114   -1.7167    0.0000 H       1  UNL1        0.0313
     49 H           7.8663   -3.3141    0.0000 H       1  UNL1        0.0271
     50 H           8.6645   -3.3233    0.0000 H       1  UNL1        0.0271
     51 H           9.3860   -2.9142    0.0000 H       1  UNL1        0.0268
     52 H           9.7878   -2.2244    0.0000 H       1  UNL1        0.0268
     53 H           4.7513   -1.9667    0.0000 H       1  UNL1        0.0384
     54 H           6.9095   -0.3347    0.0000 H       1  UNL1        0.0310
     55 H           6.1124   -0.3347    0.0000 H       1  UNL1        0.0310
     56 H           6.7450   -4.4316    0.0000 H       1  UNL1        0.0274
     57 H           7.1361   -3.7357    0.0000 H       1  UNL1        0.0274
     58 H           8.0233    0.8884    0.0000 H       1  UNL1        0.0272
     59 H           7.6376    0.1895    0.0000 H       1  UNL1        0.0272
     60 H           5.2316   -4.8549    0.0000 H       1  UNL1        0.0276
     61 H           6.0299   -4.8518    0.0000 H       1  UNL1        0.0276
     62 H           7.1365   -3.4614    0.0000 H       1  UNL1        0.0235
     63 H           7.9312   -3.8319    0.0000 H       1  UNL1        0.0235
     64 H           8.3017   -3.0372    0.0000 H       1  UNL1        0.0235
     65 H          10.6583    0.0224    0.0000 H       1  UNL1        0.0740
     66 H           5.1080   -0.9997    0.0000 H       1  UNL1        0.0572
     67 H           7.7069    0.2576    0.0000 H       1  UNL1        0.0235
     68 H           6.8617    0.0242    0.0000 H       1  UNL1        0.0235
     69 H           7.0952   -0.8210    0.0000 H       1  UNL1        0.0235
     70 H           9.5706    1.3456    0.0000 H       1  UNL1        0.0301
     71 H           8.7724    1.3364    0.0000 H       1  UNL1        0.0301
     72 H           6.6788   -3.9742    0.0000 H       1  UNL1        0.0238
     73 H           7.5522   -4.0507    0.0000 H       1  UNL1        0.0238
     74 H           7.6287   -3.1772    0.0000 H       1  UNL1        0.0238
     75 H           3.3942   -4.8838    0.0000 H       1  UNL1        0.0276
     76 H           4.1924   -4.8807    0.0000 H       1  UNL1        0.0276
     77 H           2.3203   -3.0852    0.0000 H       1  UNL1        0.0326
     78 H          11.7042   -0.5477    0.0000 H       1  UNL1        0.0564
     79 H          11.0154   -0.1465    0.0000 H       1  UNL1        0.0564
     80 H          10.0793   -1.9295    0.0000 H       1  UNL1        0.0237
     81 H          10.9253   -2.1597    0.0000 H       1  UNL1        0.0237
     82 H          11.1555   -1.3136    0.0000 H       1  UNL1        0.0237
     83 H           2.2418   -3.7545    0.0000 H       1  UNL1        0.0269
     84 H           2.6383   -4.4474    0.0000 H       1  UNL1        0.0269
     85 H           4.8555   -1.7165    0.0000 H       1  UNL1        0.0257
     86 H           4.6450   -0.8653    0.0000 H       1  UNL1        0.0257
     87 H           3.7938   -1.0759    0.0000 H       1  UNL1        0.0257
     88 H           2.3162   -1.7371    0.0000 H       1  UNL1        0.0233
     89 H           1.4667   -1.9542    0.0000 H       1  UNL1        0.0233
     90 H           1.6838   -2.8037    0.0000 H       1  UNL1        0.0233
     91 H           2.7050   -1.3650    0.0000 H       1  UNL1        0.2102
     92 H          12.2374   -1.6278    0.0000 H       1  UNL1        0.2094
     93 H           3.8445   -5.9714    0.0000 H       1  UNL1        0.2951
     94 H          12.3832    2.0301    0.0000 H       1  UNL1        0.0689
     95 H          11.3031    3.6460    0.0000 H       1  UNL1        0.0626
     96 H          13.5757    2.7247    0.0000 H       1  UNL1        0.0625
     97 H          12.1633    5.1493    0.0000 H       1  UNL1        0.0625
     98 H          14.9755    3.5401    0.0000 H       1  UNL1        0.0654
     99 H          13.5632    5.9647    0.0000 H       1  UNL1        0.0654
    100 H          15.2952    5.9714    0.0000 H       1  UNL1        0.2921
@<TRIPOS>BOND
     1    24     1    1
     2     1    38    1
     3    27     2    1
     4     2    91    1
     5     3    32    1
     6     3    92    1
     7     4    35    1
     8     4    93    1
     9     5    35    2
    10     6    38    2
    11     7    46    1
    12     7   100    1
    13     8     9    1
    14     8    11    1
    15     8    13    1
    16     8    23    1
    17     9    10    1
    18     9    18    1
    19     9    47    1
    20    10    12    1
    21    10    20    1
    22    10    26    1
    23    11    14    1
    24    11    19    1
    25    11    29    1
    26    12    15    1
    27    12    16    1
    28    12    48    1
    29    13    15    1
    30    13    49    1
    31    13    50    1
    32    14    17    1
    33    14    25    2
    34    15    51    1
    35    15    52    1
    36    16    24    1
    37    16    32    1
    38    16    33    1
    39    17    21    1
    40    17    27    1
    41    17    53    1
    42    18    25    1
    43    18    54    1
    44    18    55    1
    45    19    22    1
    46    19    56    1
    47    19    57    1
    48    20    28    1
    49    20    58    1
    50    20    59    1
    51    21    22    1
    52    21    30    1
    53    21    35    1
    54    22    60    1
    55    22    61    1
    56    23    62    1
    57    23    63    1
    58    23    64    1
    59    24    28    1
    60    24    65    1
    61    25    66    1
    62    26    67    1
    63    26    68    1
    64    26    69    1
    65    27    31    1
    66    27    36    1
    67    28    70    1
    68    28    71    1
    69    29    72    1
    70    29    73    1
    71    29    74    1
    72    30    34    1
    73    30    75    1
    74    30    76    1
    75    31    34    1
    76    31    37    1
    77    31    77    1
    78    32    78    1
    79    32    79    1
    80    33    80    1
    81    33    81    1
    82    33    82    1
    83    34    83    1
    84    34    84    1
    85    36    85    1
    86    36    86    1
    87    36    87    1
    88    37    88    1
    89    37    89    1
    90    37    90    1
    91    38    39    1
    92    39    40    2
    93    39    94    1
    94    40    41    1
    95    40    95    1
    96    41    42   ar
    97    41    43   ar
    98    42    44   ar
    99    42    96    1
   100    43    45   ar
   101    43    97    1
   102    44    46   ar
   103    44    98    1
   104    45    46   ar
   105    45    99    1
