@<TRIPOS>MOLECULE
IMPHY000819
 45 47 0 0 0
SMALL
GASTEIGER

@<TRIPOS>ATOM
      1 O           6.0290   -0.1897    0.0000 O.3     1  UNL1       -0.4826
      2 O           6.0174    2.8796    0.0000 O.2     1  UNL1       -0.2917
      3 O           4.2690    2.8450    0.0000 O.3     1  UNL1       -0.5058
      4 O           2.5369   -0.1550    0.0000 O.3     1  UNL1       -0.5062
      5 O          10.3914   -1.6892    0.0000 O.3     1  UNL1       -0.5068
      6 C           6.9350    0.3242    0.0000 C.3     1  UNL1        0.1322
      7 C           6.9350    1.3658    0.0000 C.3     1  UNL1        0.0520
      8 C           5.1350    0.3450    0.0000 C.ar    1  UNL1        0.1423
      9 C           5.1350    1.3450    0.0000 C.ar    1  UNL1        0.1009
     10 C           6.0290    1.8797    0.0000 C.2     1  UNL1        0.1740
     11 C           4.2690   -0.1550    0.0000 C.ar    1  UNL1        0.0403
     12 C           7.7991   -0.1792    0.0000 C.ar    1  UNL1       -0.0067
     13 C           4.2690   -1.1550    0.0000 C.3     1  UNL1       -0.0023
     14 C           4.2690    1.8450    0.0000 C.ar    1  UNL1        0.1343
     15 C           3.4030    0.3450    0.0000 C.ar    1  UNL1        0.1273
     16 C           3.4030    1.3450    0.0000 C.ar    1  UNL1        0.0225
     17 C           7.7953   -1.1791    0.0000 C.ar    1  UNL1       -0.0516
     18 C           8.6671    0.3175    0.0000 C.ar    1  UNL1       -0.0516
     19 C           3.4030   -1.6550    0.0000 C.2     1  UNL1       -0.0807
     20 C           8.6594   -1.6825    0.0000 C.ar    1  UNL1       -0.0198
     21 C           9.5312   -0.1858    0.0000 C.ar    1  UNL1       -0.0198
     22 C           3.4030   -2.6550    0.0000 C.2     1  UNL1       -0.0793
     23 C           9.5273   -1.1858    0.0000 C.ar    1  UNL1        0.1169
     24 C           2.5369   -3.1550    0.0000 C.3     1  UNL1       -0.0440
     25 C           4.2690   -3.1550    0.0000 C.3     1  UNL1       -0.0440
     26 H           7.4726    0.6331    0.0000 H       1  UNL1        0.0789
     27 H           7.5459    1.2597    0.0000 H       1  UNL1        0.0385
     28 H           7.1441    1.9495    0.0000 H       1  UNL1        0.0385
     29 H           4.4810   -1.7376    0.0000 H       1  UNL1        0.0358
     30 H           4.8796   -1.0473    0.0000 H       1  UNL1        0.0358
     31 H           2.8660    1.6550    0.0000 H       1  UNL1        0.0691
     32 H           7.2571   -1.4871    0.0000 H       1  UNL1        0.0623
     33 H           8.6694    0.9375    0.0000 H       1  UNL1        0.0623
     34 H           2.8660   -1.3450    0.0000 H       1  UNL1        0.0575
     35 H           8.6570   -2.3025    0.0000 H       1  UNL1        0.0654
     36 H          10.0693    0.1221    0.0000 H       1  UNL1        0.0654
     37 H           3.7320    3.1550    0.0000 H       1  UNL1        0.2922
     38 H           2.0000    0.1550    0.0000 H       1  UNL1        0.2921
     39 H           3.9590   -3.6919    0.0000 H       1  UNL1        0.0274
     40 H           4.8059   -3.4650    0.0000 H       1  UNL1        0.0274
     41 H           4.5790   -2.6181    0.0000 H       1  UNL1        0.0274
     42 H           2.2269   -2.6181    0.0000 H       1  UNL1        0.0274
     43 H           2.0000   -3.4650    0.0000 H       1  UNL1        0.0274
     44 H           2.8469   -3.6919    0.0000 H       1  UNL1        0.0274
     45 H          10.9295   -1.3812    0.0000 H       1  UNL1        0.2921
@<TRIPOS>BOND
     1     1     6    1
     2     1     8    1
     3     2    10    2
     4     3    14    1
     5     3    37    1
     6     4    15    1
     7     4    38    1
     8     5    23    1
     9     5    45    1
    10     6     7    1
    11     6    12    1
    12     6    26    1
    13     7    10    1
    14     7    27    1
    15     7    28    1
    16     8     9   ar
    17     8    11   ar
    18     9    10    1
    19     9    14   ar
    20    11    13    1
    21    11    15   ar
    22    12    17   ar
    23    12    18   ar
    24    13    19    1
    25    13    29    1
    26    13    30    1
    27    14    16   ar
    28    15    16   ar
    29    16    31    1
    30    17    20   ar
    31    17    32    1
    32    18    21   ar
    33    18    33    1
    34    19    22    2
    35    19    34    1
    36    20    23   ar
    37    20    35    1
    38    21    23   ar
    39    21    36    1
    40    22    24    1
    41    22    25    1
    42    24    42    1
    43    24    43    1
    44    24    44    1
    45    25    39    1
    46    25    40    1
    47    25    41    1
