@<TRIPOS>MOLECULE
IMPHY006354
 54 57 0 0 0
SMALL
GASTEIGER

@<TRIPOS>ATOM
      1 O           5.1350   -1.8696    0.0000 O.3     1  UNL1       -0.3221
      2 O           6.8671   -1.8696    0.0000 O.3     1  UNL1       -0.4606
      3 O           5.1350   -4.8696    0.0000 O.3     1  UNL1       -0.3863
      4 O           3.4030   -3.8696    0.0000 O.3     1  UNL1       -0.3860
      5 O           6.8671   -3.8696    0.0000 O.3     1  UNL1       -0.3829
      6 O           2.5369   -2.3696    0.0000 O.3     1  UNL1       -0.4788
      7 O           3.4030   -0.8696    0.0000 O.2     1  UNL1       -0.2480
      8 O           8.6230    1.1930    0.0000 O.2     1  UNL1       -0.4544
      9 O           5.1208    1.2096    0.0000 O.3     1  UNL1       -0.5058
     10 O           6.0308    2.7030    0.0000 O.2     1  UNL1       -0.2869
     11 O          12.0987    4.1796    0.0000 O.3     1  UNL1       -0.4915
     12 O          12.0910    2.1796    0.0000 O.3     1  UNL1       -0.5033
     13 C           5.1350   -3.8696    0.0000 C.3     1  UNL1        0.1157
     14 C           4.2690   -3.3696    0.0000 C.3     1  UNL1        0.1202
     15 C           6.0010   -3.3696    0.0000 C.3     1  UNL1        0.1455
     16 C           4.2690   -2.3696    0.0000 C.3     1  UNL1        0.1869
     17 C           6.0010   -2.3696    0.0000 C.3     1  UNL1        0.2312
     18 C           3.4030   -1.8696    0.0000 C.2     1  UNL1        0.3367
     19 C           6.8671   -0.8696    0.0000 C.ar    1  UNL1        0.1310
     20 C           7.7671   -0.3453    0.0000 C.ar    1  UNL1        0.0235
     21 C           5.9670   -0.3453    0.0000 C.ar    1  UNL1        0.0226
     22 C           7.7551    0.6963    0.0000 C.ar    1  UNL1        0.1462
     23 C           6.8910    1.1996    0.0000 C.ar    1  UNL1        0.1055
     24 C           5.9790    0.6963    0.0000 C.ar    1  UNL1        0.1347
     25 C           6.8948    2.1996    0.0000 C.ar    1  UNL1        0.1966
     26 C           8.6269    2.1929    0.0000 C.ar    1  UNL1        0.1393
     27 C           7.7628    2.6963    0.0000 C.ar    1  UNL1        0.0288
     28 C           9.4948    2.6896    0.0000 C.ar    1  UNL1        0.0211
     29 C          10.3589    2.1863    0.0000 C.ar    1  UNL1       -0.0059
     30 C           9.4987    3.6896    0.0000 C.ar    1  UNL1       -0.0474
     31 C          11.2269    2.6829    0.0000 C.ar    1  UNL1        0.1591
     32 C          10.3666    4.1862    0.0000 C.ar    1  UNL1       -0.0156
     33 C          11.2307    3.6829    0.0000 C.ar    1  UNL1        0.1613
     34 C          12.1025    5.1796    0.0000 C.3     1  UNL1        0.0790
     35 H           5.6720   -4.1796    0.0000 H       1  UNL1        0.0648
     36 H           4.2690   -3.9896    0.0000 H       1  UNL1        0.0652
     37 H           6.5380   -3.0596    0.0000 H       1  UNL1        0.0683
     38 H           4.2690   -1.7496    0.0000 H       1  UNL1        0.0742
     39 H           6.0010   -1.7496    0.0000 H       1  UNL1        0.1084
     40 H           5.6720   -5.1796    0.0000 H       1  UNL1        0.2100
     41 H           7.4040   -3.5596    0.0000 H       1  UNL1        0.2102
     42 H           3.4030   -4.4896    0.0000 H       1  UNL1        0.2100
     43 H           8.3064   -0.6511    0.0000 H       1  UNL1        0.0691
     44 H           5.4277   -0.6511    0.0000 H       1  UNL1        0.0691
     45 H           2.0000   -2.0596    0.0000 H       1  UNL1        0.2951
     46 H           7.7652    3.3163    0.0000 H       1  UNL1        0.0693
     47 H           4.5792    0.9079    0.0000 H       1  UNL1        0.2922
     48 H          10.3565    1.5663    0.0000 H       1  UNL1        0.0662
     49 H           8.9630    4.0017    0.0000 H       1  UNL1        0.0626
     50 H          10.3690    4.8062    0.0000 H       1  UNL1        0.0655
     51 H          12.6291    2.4875    0.0000 H       1  UNL1        0.2923
     52 H          12.7225    5.1772    0.0000 H       1  UNL1        0.0660
     53 H          12.1049    5.7996    0.0000 H       1  UNL1        0.0660
     54 H          11.4825    5.1819    0.0000 H       1  UNL1        0.0660
@<TRIPOS>BOND
     1     1    16    1
     2     1    17    1
     3    17     2    1
     4     2    19    1
     5    13     3    1
     6     3    40    1
     7    14     4    1
     8     4    42    1
     9    15     5    1
    10     5    41    1
    11     6    18    1
    12     6    45    1
    13     7    18    2
    14     8    22   ar
    15     8    26   ar
    16     9    24    1
    17     9    47    1
    18    10    25    2
    19    11    33    1
    20    11    34    1
    21    12    31    1
    22    12    51    1
    23    13    14    1
    24    13    15    1
    25    13    35    1
    26    14    16    1
    27    14    36    1
    28    15    17    1
    29    15    37    1
    30    16    18    1
    31    16    38    1
    32    17    39    1
    33    19    20   ar
    34    19    21   ar
    35    20    22   ar
    36    20    43    1
    37    21    24   ar
    38    21    44    1
    39    22    23   ar
    40    23    24   ar
    41    23    25   ar
    42    25    27   ar
    43    26    27   ar
    44    26    28    1
    45    27    46    1
    46    28    29   ar
    47    28    30   ar
    48    29    31   ar
    49    29    48    1
    50    30    32   ar
    51    30    49    1
    52    31    33   ar
    53    32    33   ar
    54    32    50    1
    55    34    52    1
    56    34    53    1
    57    34    54    1
