@<TRIPOS>MOLECULE
IMPHY012672
 44 43 0 0 0
SMALL
GASTEIGER

@<TRIPOS>ATOM
      1 O           2.5369    0.7500    0.0000 O.3     1  UNL1       -0.4806
      2 O           3.4030   -0.7500    0.0000 O.2     1  UNL1       -0.2510
      3 C           6.0010    0.7500    0.0000 C.3     1  UNL1       -0.0523
      4 C           6.8671    0.2500    0.0000 C.3     1  UNL1       -0.0496
      5 C           5.1350    0.2500    0.0000 C.3     1  UNL1       -0.0430
      6 C           7.7331    0.7500    0.0000 C.3     1  UNL1       -0.0348
      7 C           4.2690    0.7500    0.0000 C.3     1  UNL1        0.0448
      8 C           8.5991    0.2500    0.0000 C.2     1  UNL1       -0.0876
      9 C           9.4651    0.7500    0.0000 C.2     1  UNL1       -0.0842
     10 C           3.4030    0.2500    0.0000 C.2     1  UNL1        0.3047
     11 C          10.3312    0.2500    0.0000 C.3     1  UNL1       -0.0165
     12 C          11.1972    0.7500    0.0000 C.2     1  UNL1       -0.0839
     13 C          12.9292    0.7500    0.0000 C.3     1  UNL1       -0.0165
     14 C          12.0632    0.2500    0.0000 C.2     1  UNL1       -0.0839
     15 C          13.7953    0.2500    0.0000 C.2     1  UNL1       -0.0842
     16 C          15.5273    0.2500    0.0000 C.3     1  UNL1       -0.0376
     17 C          14.6613    0.7500    0.0000 C.2     1  UNL1       -0.0879
     18 C          16.3933    0.7500    0.0000 C.3     1  UNL1       -0.0618
     19 H           6.3996    1.2250    0.0000 H       1  UNL1        0.0265
     20 H           5.6025    1.2250    0.0000 H       1  UNL1        0.0265
     21 H           6.4685   -0.2249    0.0000 H       1  UNL1        0.0268
     22 H           7.2656   -0.2249    0.0000 H       1  UNL1        0.0268
     23 H           4.7365   -0.2249    0.0000 H       1  UNL1        0.0270
     24 H           5.5335   -0.2249    0.0000 H       1  UNL1        0.0270
     25 H           8.1316    1.2250    0.0000 H       1  UNL1        0.0307
     26 H           7.3346    1.2250    0.0000 H       1  UNL1        0.0307
     27 H           4.6675    1.2250    0.0000 H       1  UNL1        0.0377
     28 H           3.8705    1.2250    0.0000 H       1  UNL1        0.0377
     29 H           8.5991   -0.3700    0.0000 H       1  UNL1        0.0569
     30 H           9.4651    1.3700    0.0000 H       1  UNL1        0.0572
     31 H           9.9326   -0.2249    0.0000 H       1  UNL1        0.0350
     32 H          10.7297   -0.2249    0.0000 H       1  UNL1        0.0350
     33 H          11.1972    1.3700    0.0000 H       1  UNL1        0.0572
     34 H          13.3278    1.2250    0.0000 H       1  UNL1        0.0350
     35 H          12.5307    1.2250    0.0000 H       1  UNL1        0.0350
     36 H          12.0632   -0.3700    0.0000 H       1  UNL1        0.0572
     37 H          13.7953   -0.3700    0.0000 H       1  UNL1        0.0572
     38 H          15.1288   -0.2249    0.0000 H       1  UNL1        0.0305
     39 H          15.9258   -0.2249    0.0000 H       1  UNL1        0.0305
     40 H          14.6613    1.3700    0.0000 H       1  UNL1        0.0569
     41 H           2.0000    0.4400    0.0000 H       1  UNL1        0.2951
     42 H          16.7033    0.2131    0.0000 H       1  UNL1        0.0233
     43 H          16.9303    1.0600    0.0000 H       1  UNL1        0.0233
     44 H          16.0833    1.2869    0.0000 H       1  UNL1        0.0233
@<TRIPOS>BOND
     1     1    10    1
     2     1    41    1
     3     2    10    2
     4     3     4    1
     5     3     5    1
     6     3    19    1
     7     3    20    1
     8     4     6    1
     9     4    21    1
    10     4    22    1
    11     5     7    1
    12     5    23    1
    13     5    24    1
    14     6     8    1
    15     6    25    1
    16     6    26    1
    17     7    10    1
    18     7    27    1
    19     7    28    1
    20     8     9    2
    21     8    29    1
    22     9    11    1
    23     9    30    1
    24    11    12    1
    25    11    31    1
    26    11    32    1
    27    12    14    2
    28    12    33    1
    29    13    14    1
    30    13    15    1
    31    13    34    1
    32    13    35    1
    33    14    36    1
    34    15    17    2
    35    15    37    1
    36    16    17    1
    37    16    18    1
    38    16    38    1
    39    16    39    1
    40    17    40    1
    41    18    42    1
    42    18    43    1
    43    18    44    1
