@<TRIPOS>MOLECULE
IMPHY013933
 21 21 0 0 0
SMALL
GASTEIGER

@<TRIPOS>ATOM
      1 O           5.1350    1.8450    0.0000 O.3     1  UNL1       -0.3917
      2 O           2.5369   -0.6550    0.0000 O.3     1  UNL1       -0.4795
      3 OXT         3.4030   -2.1550    0.0000 O.2     1  UNL1       -0.2492
      4 N           5.1350   -1.1550    0.0000 N.3     1  UNL1       -0.3040
      5 C           5.1350    0.8450    0.0000 C.3     1  UNL1        0.0583
      6 C           4.2690    0.3450    0.0000 C.3     1  UNL1       -0.0010
      7 CA          4.2690   -0.6550    0.0000 C.3     1  UNL1        0.1081
      8 C           6.0010    0.3450    0.0000 C.3     1  UNL1       -0.0142
      9 C           6.0010   -0.6550    0.0000 C.3     1  UNL1       -0.0010
     10 C           3.4030   -1.1550    0.0000 C.2     1  UNL1        0.3220
     11 H           5.6720    1.1550    0.0000 H       1  UNL1        0.0594
     12 H           4.0569    0.9276    0.0000 H       1  UNL1        0.0310
     13 H           3.6584    0.2373    0.0000 H       1  UNL1        0.0310
     14 HA          4.2690   -1.2750    0.0000 H       1  UNL1        0.0577
     15 H           6.6116    0.2373    0.0000 H       1  UNL1        0.0302
     16 H           6.2131    0.9276    0.0000 H       1  UNL1        0.0302
     17 H           6.2131   -1.2376    0.0000 H       1  UNL1        0.0425
     18 H           6.6116   -0.5473    0.0000 H       1  UNL1        0.0425
     19 H           5.1350   -1.7750    0.0000 H       1  UNL1        0.1227
     20 H           5.6720    2.1550    0.0000 H       1  UNL1        0.2098
     21 H           2.0000   -0.9650    0.0000 H       1  UNL1        0.2951
@<TRIPOS>BOND
     1     5     1    1
     2     1    20    1
     3     2    10    1
     4     2    21    1
     5     3    10    2
     6     4     7    1
     7     4     9    1
     8     4    19    1
     9     5     6    1
    10     5     8    1
    11     5    11    1
    12     6     7    1
    13     6    12    1
    14     6    13    1
    15     7    10    1
    16     7    14    1
    17     8     9    1
    18     8    15    1
    19     8    16    1
    20     9    17    1
    21     9    18    1
