@<TRIPOS>MOLECULE
IMPHY014195
 107 116 0 0 0
SMALL
GASTEIGER

@<TRIPOS>ATOM
      1 O           7.8837    2.6777    0.0000 O.3     1  UNL1       -0.3578
      2 O          12.0180    3.6072    0.0000 O.3     1  UNL1       -0.3329
      3 O           6.2824    1.4970    0.0000 O.3     1  UNL1       -0.3730
      4 O           9.8894   -0.6639    0.0000 O.3     1  UNL1       -0.3391
      5 O           7.3654    2.4938    0.0000 O.3     1  UNL1       -0.3886
      6 O           9.0193   -1.6804    0.0000 O.3     1  UNL1       -0.4575
      7 O          10.9637    0.0356    0.0000 O.3     1  UNL1       -0.3560
      8 O           9.8862    4.9077    0.0000 O.3     1  UNL1       -0.3778
      9 O          12.3106    5.4817    0.0000 O.2     1  UNL1       -0.4680
     10 O           5.4795   -1.6941    0.0000 O.3     1  UNL1       -0.4575
     11 O          11.3724    1.1574    0.0000 O.3     1  UNL1       -0.4642
     12 O           9.7913    1.8647    0.0000 O.2     1  UNL1       -0.2447
     13 O           8.1707   -3.1904    0.0000 O.2     1  UNL1       -0.2456
     14 O           6.3397   -3.1974    0.0000 O.2     1  UNL1       -0.2456
     15 C           8.8239    2.3358    0.0000 C.3     1  UNL1        0.1334
     16 C           8.9975    1.3510    0.0000 C.3     1  UNL1        0.0394
     17 C           8.6502    3.3206    0.0000 C.3     1  UNL1        0.1055
     18 C           8.9975    0.3510    0.0000 C.3     1  UNL1        0.0462
     19 C           8.1315   -0.1490    0.0000 C.3     1  UNL1        0.0462
     20 C          10.1331    3.4507    0.0000 C.3     1  UNL1        0.0316
     21 C          10.3068    2.4659    0.0000 C.3     1  UNL1        0.0955
     22 C           7.2655    0.3510    0.0000 C.3     1  UNL1        0.0102
     23 C           8.1315    1.8510    0.0000 C.3     1  UNL1        0.0902
     24 C           7.2655    1.3510    0.0000 C.3     1  UNL1        0.0893
     25 C          11.3896    1.8866    0.0000 C.3     1  UNL1       -0.0149
     26 C           6.3555   -0.1558    0.0000 C.3     1  UNL1        0.0344
     27 C           9.9693    0.1418    0.0000 C.3     1  UNL1        0.2720
     28 C          10.8739    4.7513    0.0000 C.3     1  UNL1        0.1545
     29 C           8.1476   -1.1905    0.0000 C.3     1  UNL1        0.1153
     30 C           9.7636    0.7082    0.0000 C.3     1  UNL1       -0.0538
     31 C           8.7986   -0.8860    0.0000 C.3     1  UNL1        0.0613
     32 C           8.4766    4.3054    0.0000 C.3     1  UNL1       -0.0326
     33 C           6.3474   -1.1974    0.0000 C.3     1  UNL1        0.1145
     34 C          11.8616    4.5948    0.0000 C.3     1  UNL1        0.2342
     35 C           5.7687    0.6462    0.0000 C.3     1  UNL1        0.0572
     36 C           7.2495   -1.7183    0.0000 C.3     1  UNL1        0.0228
     37 C           5.3555   -0.1443    0.0000 C.3     1  UNL1       -0.0537
     38 C          10.7210    5.7335    0.0000 C.2     1  UNL1       -0.0121
     39 C          10.3777    1.0546    0.0000 C.2     1  UNL1        0.3675
     40 C          11.6071    6.1840    0.0000 C.2     1  UNL1        0.0870
     41 C           9.0309   -2.6804    0.0000 C.2     1  UNL1        0.3322
     42 C           5.4756   -2.6941    0.0000 C.2     1  UNL1        0.3322
     43 C          11.9587    0.3474    0.0000 C.3     1  UNL1        0.0818
     44 C           9.9026   -3.1703    0.0000 C.2     1  UNL1        0.0231
     45 C           4.6077   -3.1908    0.0000 C.2     1  UNL1        0.0231
     46 C           9.9142   -4.1703    0.0000 C.2     1  UNL1       -0.0478
     47 C           4.6038   -4.1907    0.0000 C.2     1  UNL1       -0.0478
     48 C          10.7859   -4.6602    0.0000 C.ar    1  UNL1       -0.0248
     49 C           3.7359   -4.6874    0.0000 C.ar    1  UNL1       -0.0248
     50 C          10.7975   -5.6602    0.0000 C.ar    1  UNL1       -0.0546
     51 C          11.6461   -4.1502    0.0000 C.ar    1  UNL1       -0.0546
     52 C           2.8718   -4.1841    0.0000 C.ar    1  UNL1       -0.0546
     53 C           3.7320   -5.6874    0.0000 C.ar    1  UNL1       -0.0546
     54 C          11.6692   -6.1501    0.0000 C.ar    1  UNL1       -0.0612
     55 C          12.5179   -4.6402    0.0000 C.ar    1  UNL1       -0.0612
     56 C           2.0038   -4.6807    0.0000 C.ar    1  UNL1       -0.0612
     57 C           2.8641   -6.1840    0.0000 C.ar    1  UNL1       -0.0612
     58 C          12.5294   -5.6401    0.0000 C.ar    1  UNL1       -0.0617
     59 C           2.0000   -5.6807    0.0000 C.ar    1  UNL1       -0.0617
     60 H           9.6588    0.8851    0.0000 H       1  UNL1        0.0373
     61 H          10.4544    1.6288    0.0000 H       1  UNL1        0.0627
     62 H           9.9855    4.2878    0.0000 H       1  UNL1        0.0363
     63 H           7.2655   -0.4990    0.0000 H       1  UNL1        0.0341
     64 H           8.4871    2.3589    0.0000 H       1  UNL1        0.0626
     65 H           7.1065    2.1860    0.0000 H       1  UNL1        0.0625
     66 H          11.3266    1.2698    0.0000 H       1  UNL1        0.0296
     67 H          11.9842    2.0624    0.0000 H       1  UNL1        0.0296
     68 H           8.1535   -1.8105    0.0000 H       1  UNL1        0.0742
     69 H           9.3650    0.2333    0.0000 H       1  UNL1        0.0237
     70 H          10.2385    0.3097    0.0000 H       1  UNL1        0.0237
     71 H          10.1621    1.1832    0.0000 H       1  UNL1        0.0237
     72 H           8.2724   -1.2140    0.0000 H       1  UNL1        0.0568
     73 H           9.0280   -1.4620    0.0000 H       1  UNL1        0.0568
     74 H           9.0872    4.4131    0.0000 H       1  UNL1        0.0258
     75 H           8.3689    4.9160    0.0000 H       1  UNL1        0.0258
     76 H           7.8660    4.1978    0.0000 H       1  UNL1        0.0258
     77 H           5.8123   -0.8843    0.0000 H       1  UNL1        0.0741
     78 H          12.7011    4.4619    0.0000 H       1  UNL1        0.1090
     79 H           5.2847    1.0338    0.0000 H       1  UNL1        0.0567
     80 H           5.3208    0.2175    0.0000 H       1  UNL1        0.0567
     81 H           6.8522   -2.1942    0.0000 H       1  UNL1        0.0337
     82 H           7.6505   -2.1912    0.0000 H       1  UNL1        0.0337
     83 H           5.3627    0.4757    0.0000 H       1  UNL1        0.0237
     84 H           4.7356   -0.1371    0.0000 H       1  UNL1        0.0237
     85 H           5.3484   -0.7642    0.0000 H       1  UNL1        0.0237
     86 H           6.7828    2.2817    0.0000 H       1  UNL1        0.2099
     87 H          10.1690    6.0159    0.0000 H       1  UNL1        0.0633
     88 H          11.2149   -0.5313    0.0000 H       1  UNL1        0.2133
     89 H           9.6640    5.4865    0.0000 H       1  UNL1        0.2109
     90 H          11.7041    6.7964    0.0000 H       1  UNL1        0.1022
     91 H          11.4565   -0.0161    0.0000 H       1  UNL1        0.0661
     92 H          12.3223   -0.1548    0.0000 H       1  UNL1        0.0661
     93 H          12.4610    0.7110    0.0000 H       1  UNL1        0.0661
     94 H          10.4359   -2.8542    0.0000 H       1  UNL1        0.0689
     95 H           4.0720   -2.8787    0.0000 H       1  UNL1        0.0689
     96 H           9.3809   -4.4865    0.0000 H       1  UNL1        0.0626
     97 H           5.1396   -4.5028    0.0000 H       1  UNL1        0.0626
     98 H          10.2642   -5.9764    0.0000 H       1  UNL1        0.0623
     99 H          11.6389   -3.5303    0.0000 H       1  UNL1        0.0623
    100 H           2.8742   -3.5641    0.0000 H       1  UNL1        0.0623
    101 H           4.2678   -5.9995    0.0000 H       1  UNL1        0.0623
    102 H          11.6764   -6.7701    0.0000 H       1  UNL1        0.0618
    103 H          13.0512   -4.3240    0.0000 H       1  UNL1        0.0618
    104 H           1.4681   -4.3687    0.0000 H       1  UNL1        0.0618
    105 H           2.8617   -6.8040    0.0000 H       1  UNL1        0.0618
    106 H          13.0699   -5.9439    0.0000 H       1  UNL1        0.0618
    107 H           1.4619   -5.9886    0.0000 H       1  UNL1        0.0618
@<TRIPOS>BOND
     1    15     1    1
     2     1    17    1
     3     2    21    1
     4     2    34    1
     5     3    24    1
     6     3    35    1
     7     4    27    1
     8     4    31    1
     9    23     5    1
    10     5    86    1
    11    29     6    1
    12     6    41    1
    13    27     7    1
    14     7    88    1
    15    28     8    1
    16     8    89    1
    17     9    34    1
    18     9    40    1
    19    33    10    1
    20    10    42    1
    21    11    39    1
    22    11    43    1
    23    12    39    2
    24    13    41    2
    25    14    42    2
    26    15    16    1
    27    15    17    1
    28    15    21    1
    29    16    18    1
    30    16    23    1
    31    16    30    1
    32    17    20    1
    33    17    32    1
    34    18    19    1
    35    18    27    1
    36    18    60    1
    37    19    22    1
    38    19    29    1
    39    19    31    1
    40    20    25    1
    41    20    28    1
    42    20    62    1
    43    21    25    1
    44    21    61    1
    45    22    24    1
    46    22    26    1
    47    22    63    1
    48    23    24    1
    49    23    64    1
    50    24    65    1
    51    25    66    1
    52    25    67    1
    53    26    33    1
    54    26    35    1
    55    26    37    1
    56    27    39    1
    57    28    34    1
    58    28    38    1
    59    29    36    1
    60    29    68    1
    61    30    69    1
    62    30    70    1
    63    30    71    1
    64    31    72    1
    65    31    73    1
    66    32    74    1
    67    32    75    1
    68    32    76    1
    69    33    36    1
    70    33    77    1
    71    34    78    1
    72    35    79    1
    73    35    80    1
    74    36    81    1
    75    36    82    1
    76    37    83    1
    77    37    84    1
    78    37    85    1
    79    38    40    2
    80    38    87    1
    81    40    90    1
    82    41    44    1
    83    42    45    1
    84    43    91    1
    85    43    92    1
    86    43    93    1
    87    44    46    2
    88    44    94    1
    89    45    47    2
    90    45    95    1
    91    46    48    1
    92    46    96    1
    93    47    49    1
    94    47    97    1
    95    48    50   ar
    96    48    51   ar
    97    49    52   ar
    98    49    53   ar
    99    50    54   ar
   100    50    98    1
   101    51    55   ar
   102    51    99    1
   103    52    56   ar
   104    52   100    1
   105    53    57   ar
   106    53   101    1
   107    54    58   ar
   108    54   102    1
   109    55    58   ar
   110    55   103    1
   111    56    59   ar
   112    56   104    1
   113    57    59   ar
   114    57   105    1
   115    58   106    1
   116    59   107    1
