@<TRIPOS>MOLECULE
IMPHY012874
 32 34 0 0 0
SMALL
GASTEIGER

@<TRIPOS>ATOM
      1 O           6.3981   -1.6581    0.0000 O.2     1  UNL1       -0.4543
      2 O           9.9282   -1.6822    0.0000 O.3     1  UNL1       -0.4949
      3 O           8.1465    1.3765    0.0000 O.3     1  UNL1       -0.5058
      4 O           6.3981    1.3419    0.0000 O.2     1  UNL1       -0.2863
      5 O           2.8680    0.3661    0.0000 O.3     1  UNL1       -0.4951
      6 C           7.2641   -0.1581    0.0000 C.ar    1  UNL1        0.1061
      7 C           5.5320   -0.1581    0.0000 C.ar    1  UNL1        0.0681
      8 C           7.2641   -1.1581    0.0000 C.ar    1  UNL1        0.1463
      9 C           5.5320   -1.1581    0.0000 C.ar    1  UNL1        0.1395
     10 C           6.3981    0.3419    0.0000 C.ar    1  UNL1        0.2038
     11 C           8.1580    0.3766    0.0000 C.ar    1  UNL1        0.1347
     12 C           4.6381    0.3766    0.0000 C.ar    1  UNL1       -0.0056
     13 C           8.1580   -1.6927    0.0000 C.ar    1  UNL1        0.0233
     14 C           4.6381   -1.6927    0.0000 C.ar    1  UNL1       -0.0152
     15 C           9.0641   -1.1789    0.0000 C.ar    1  UNL1        0.1271
     16 C           9.0641   -0.1372    0.0000 C.ar    1  UNL1        0.0225
     17 C           3.7320   -0.1372    0.0000 C.ar    1  UNL1        0.1210
     18 C           3.7320   -1.1789    0.0000 C.ar    1  UNL1       -0.0164
     19 C          10.7961   -1.1856    0.0000 C.3     1  UNL1        0.0788
     20 C           2.0000   -0.1306    0.0000 C.3     1  UNL1        0.0788
     21 H           4.6453    0.9966    0.0000 H       1  UNL1        0.0662
     22 H           8.1509   -2.3127    0.0000 H       1  UNL1        0.0691
     23 H           4.6453   -2.3127    0.0000 H       1  UNL1        0.0656
     24 H           9.5998    0.1748    0.0000 H       1  UNL1        0.0691
     25 H           3.1963   -1.4909    0.0000 H       1  UNL1        0.0655
     26 H           8.6798    1.6927    0.0000 H       1  UNL1        0.2922
     27 H          11.1041   -1.7237    0.0000 H       1  UNL1        0.0660
     28 H          11.3343   -0.8776    0.0000 H       1  UNL1        0.0660
     29 H          10.4882   -0.6474    0.0000 H       1  UNL1        0.0660
     30 H           1.6921    0.4076    0.0000 H       1  UNL1        0.0660
     31 H           1.4619   -0.4385    0.0000 H       1  UNL1        0.0660
     32 H           2.3079   -0.6687    0.0000 H       1  UNL1        0.0660
@<TRIPOS>BOND
     1     1     8   ar
     2     1     9   ar
     3     2    15    1
     4     2    19    1
     5     3    11    1
     6     3    26    1
     7     4    10    2
     8     5    17    1
     9     5    20    1
    10     6     8   ar
    11     6    10   ar
    12     6    11   ar
    13     7     9   ar
    14     7    10   ar
    15     7    12   ar
    16     8    13   ar
    17     9    14   ar
    18    11    16   ar
    19    12    17   ar
    20    12    21    1
    21    13    15   ar
    22    13    22    1
    23    14    18   ar
    24    14    23    1
    25    15    16   ar
    26    16    24    1
    27    17    18   ar
    28    18    25    1
    29    19    27    1
    30    19    28    1
    31    19    29    1
    32    20    30    1
    33    20    31    1
    34    20    32    1
