@<TRIPOS>MOLECULE
IMPHY007723
 58 61 0 0 0
SMALL
GASTEIGER

@<TRIPOS>ATOM
      1 O           7.9288   -1.3938    0.0000 O.3     1  UNL1       -0.3875
      2 O           8.5677    1.8625    0.0000 O.3     1  UNL1       -0.3778
      3 O          10.4586    0.1062    0.0000 O.3     1  UNL1       -0.3884
      4 O          10.5979    1.0890    0.0000 O.2     1  UNL1       -0.2945
      5 O           2.5357   -2.4462    0.0000 O.3     1  UNL1       -0.3915
      6 C           7.9288   -0.3938    0.0000 C.3     1  UNL1        0.0803
      7 C           7.9288    0.6062    0.0000 C.3     1  UNL1        0.0351
      8 C           7.0628   -0.8938    0.0000 C.3     1  UNL1       -0.0044
      9 C           6.1968   -0.3938    0.0000 C.3     1  UNL1       -0.0262
     10 C           8.8750    0.9109    0.0000 C.3     1  UNL1        0.1568
     11 C           5.2868   -0.9007    0.0000 C.3     1  UNL1       -0.0077
     12 C           7.0628    1.1062    0.0000 C.3     1  UNL1       -0.0416
     13 C           8.8750   -0.6986    0.0000 C.3     1  UNL1        0.0062
     14 C           6.1968    0.6062    0.0000 C.3     1  UNL1       -0.0484
     15 C           9.4586    0.1062    0.0000 C.3     1  UNL1        0.0940
     16 C           7.0789   -1.9353    0.0000 C.3     1  UNL1       -0.0287
     17 C           7.9288    1.6062    0.0000 C.3     1  UNL1       -0.0538
     18 C           5.2787   -1.9423    0.0000 C.2     1  UNL1       -0.0648
     19 C           4.3599   -0.3366    0.0000 C.3     1  UNL1       -0.0413
     20 C           6.1808   -2.4631    0.0000 C.2     1  UNL1       -0.0838
     21 C           5.2945    0.0993    0.0000 C.3     1  UNL1       -0.0556
     22 C           9.6851    1.4973    0.0000 C.2     1  UNL1        0.1647
     23 C           4.3433   -2.4920    0.0000 C.3     1  UNL1       -0.0051
     24 C           3.4120   -0.8645    0.0000 C.3     1  UNL1       -0.0258
     25 C           3.4037   -1.9495    0.0000 C.3     1  UNL1        0.0590
     26 C           9.5823    2.4920    0.0000 C.3     1  UNL1       -0.0030
     27 H           7.8022   -1.3131    0.0000 H       1  UNL1        0.0335
     28 H           6.9329    0.0312    0.0000 H       1  UNL1        0.0313
     29 H           7.4613    1.5811    0.0000 H       1  UNL1        0.0273
     30 H           6.6643    1.5811    0.0000 H       1  UNL1        0.0273
     31 H           8.6240   -1.2655    0.0000 H       1  UNL1        0.0319
     32 H           9.4124   -1.0078    0.0000 H       1  UNL1        0.0319
     33 H           5.9847    1.1888    0.0000 H       1  UNL1        0.0268
     34 H           5.5862    0.4985    0.0000 H       1  UNL1        0.0268
     35 H           9.7404   -0.4461    0.0000 H       1  UNL1        0.0627
     36 H           7.2969   -2.5157    0.0000 H       1  UNL1        0.0311
     37 H           7.6880   -1.8198    0.0000 H       1  UNL1        0.0311
     38 H           8.5488    1.6062    0.0000 H       1  UNL1        0.0237
     39 H           7.9288    2.2262    0.0000 H       1  UNL1        0.0237
     40 H           7.3088    1.6062    0.0000 H       1  UNL1        0.0237
     41 H           4.7681    0.1301    0.0000 H       1  UNL1        0.0274
     42 H           3.9700    0.1455    0.0000 H       1  UNL1        0.0274
     43 H           6.1832   -3.0831    0.0000 H       1  UNL1        0.0572
     44 H           8.4658   -1.7038    0.0000 H       1  UNL1        0.2102
     45 H           5.9145    0.0945    0.0000 H       1  UNL1        0.0238
     46 H           5.2993    0.7193    0.0000 H       1  UNL1        0.0238
     47 H           4.6745    0.1041    0.0000 H       1  UNL1        0.0238
     48 H           3.9460   -2.9680    0.0000 H       1  UNL1        0.0335
     49 H           4.7443   -2.9649    0.0000 H       1  UNL1        0.0335
     50 H           3.2075   -0.2792    0.0000 H       1  UNL1        0.0290
     51 H           2.8004   -0.9659    0.0000 H       1  UNL1        0.0290
     52 H           8.9833    2.3225    0.0000 H       1  UNL1        0.2109
     53 H           3.4025   -2.5695    0.0000 H       1  UNL1        0.0596
     54 H          10.7687   -0.4308    0.0000 H       1  UNL1        0.2099
     55 H          10.1990    2.5557    0.0000 H       1  UNL1        0.0307
     56 H           9.5185    3.1087    0.0000 H       1  UNL1        0.0307
     57 H           8.9656    2.4282    0.0000 H       1  UNL1        0.0307
     58 H           2.0000   -2.1341    0.0000 H       1  UNL1        0.2098
@<TRIPOS>BOND
     1     6     1    1
     2     1    44    1
     3    10     2    1
     4     2    52    1
     5    15     3    1
     6     3    54    1
     7     4    22    2
     8    25     5    1
     9     5    58    1
    10     6     7    1
    11     6     8    1
    12     6    13    1
    13     7    10    1
    14     7    12    1
    15     7    17    1
    16     8     9    1
    17     8    16    1
    18     8    27    1
    19     9    11    1
    20     9    14    1
    21     9    28    1
    22    10    15    1
    23    10    22    1
    24    11    18    1
    25    11    19    1
    26    11    21    1
    27    12    14    1
    28    12    29    1
    29    12    30    1
    30    13    15    1
    31    13    31    1
    32    13    32    1
    33    14    33    1
    34    14    34    1
    35    15    35    1
    36    16    20    1
    37    16    36    1
    38    16    37    1
    39    17    38    1
    40    17    39    1
    41    17    40    1
    42    18    20    2
    43    18    23    1
    44    19    24    1
    45    19    41    1
    46    19    42    1
    47    20    43    1
    48    21    45    1
    49    21    46    1
    50    21    47    1
    51    22    26    1
    52    23    25    1
    53    23    48    1
    54    23    49    1
    55    24    25    1
    56    24    50    1
    57    24    51    1
    58    25    53    1
    59    26    55    1
    60    26    56    1
    61    26    57    1
