@<TRIPOS>MOLECULE
IMPHY012632
 40 40 0 0 0
SMALL
GASTEIGER

@<TRIPOS>ATOM
      1 O           2.8660   -0.7500    0.0000 O.2     1  UNL1       -0.2964
      2 C           4.5981    1.2500    0.0000 C.3     1  UNL1       -0.0011
      3 C           4.5981   -0.7500    0.0000 C.3     1  UNL1        0.0205
      4 C           3.7320    0.7500    0.0000 C.3     1  UNL1        0.0471
      5 C           5.4641    0.7500    0.0000 C.3     1  UNL1       -0.0426
      6 C           5.4641   -0.2500    0.0000 C.3     1  UNL1       -0.0425
      7 C           3.7320   -0.2500    0.0000 C.2     1  UNL1        0.1445
      8 C           4.5981   -1.7500    0.0000 C.3     1  UNL1       -0.0372
      9 C           4.0981    2.1160    0.0000 C.3     1  UNL1       -0.0552
     10 C           2.8660    1.2500    0.0000 C.2     1  UNL1       -0.0687
     11 C           5.0981    2.1160    0.0000 C.2     1  UNL1       -0.0842
     12 C           5.4641   -2.2500    0.0000 C.3     1  UNL1       -0.0620
     13 C           3.7320   -2.2500    0.0000 C.3     1  UNL1       -0.0620
     14 C           2.0000    0.7500    0.0000 C.3     1  UNL1       -0.0433
     15 C           2.8660    2.2500    0.0000 C.2     1  UNL1       -0.0990
     16 C           6.0981    2.1160    0.0000 C.2     1  UNL1       -0.1021
     17 H           5.1350   -1.0600    0.0000 H       1  UNL1        0.0380
     18 H           3.7320    1.3700    0.0000 H       1  UNL1        0.0431
     19 H           6.0747    0.6423    0.0000 H       1  UNL1        0.0274
     20 H           5.6762    1.3326    0.0000 H       1  UNL1        0.0274
     21 H           5.6762   -0.8326    0.0000 H       1  UNL1        0.0272
     22 H           6.0747   -0.1423    0.0000 H       1  UNL1        0.0272
     23 H           4.5981   -2.3700    0.0000 H       1  UNL1        0.0302
     24 H           4.6350    2.4260    0.0000 H       1  UNL1        0.0238
     25 H           3.7881    2.6530    0.0000 H       1  UNL1        0.0238
     26 H           3.5611    1.8060    0.0000 H       1  UNL1        0.0238
     27 H           4.7881    2.6530    0.0000 H       1  UNL1        0.0572
     28 H           5.1541   -2.7869    0.0000 H       1  UNL1        0.0233
     29 H           6.0010   -2.5600    0.0000 H       1  UNL1        0.0233
     30 H           5.7741   -1.7131    0.0000 H       1  UNL1        0.0233
     31 H           3.4220   -1.7131    0.0000 H       1  UNL1        0.0233
     32 H           3.1951   -2.5600    0.0000 H       1  UNL1        0.0233
     33 H           4.0420   -2.7869    0.0000 H       1  UNL1        0.0233
     34 H           1.6900    1.2869    0.0000 H       1  UNL1        0.0274
     35 H           1.4631    0.4400    0.0000 H       1  UNL1        0.0274
     36 H           2.3100    0.2131    0.0000 H       1  UNL1        0.0274
     37 H           3.4030    2.5600    0.0000 H       1  UNL1        0.0535
     38 H           2.3291    2.5600    0.0000 H       1  UNL1        0.0535
     39 H           6.4081    1.5791    0.0000 H       1  UNL1        0.0532
     40 H           6.4081    2.6530    0.0000 H       1  UNL1        0.0532
@<TRIPOS>BOND
     1     1     7    2
     2     2     4    1
     3     2     5    1
     4     2     9    1
     5     2    11    1
     6     3     6    1
     7     3     7    1
     8     3     8    1
     9     3    17    1
    10     4     7    1
    11     4    10    1
    12     4    18    1
    13     5     6    1
    14     5    19    1
    15     5    20    1
    16     6    21    1
    17     6    22    1
    18     8    12    1
    19     8    13    1
    20     8    23    1
    21     9    24    1
    22     9    25    1
    23     9    26    1
    24    10    14    1
    25    10    15    2
    26    11    16    2
    27    11    27    1
    28    12    28    1
    29    12    29    1
    30    12    30    1
    31    13    31    1
    32    13    32    1
    33    13    33    1
    34    14    34    1
    35    14    35    1
    36    14    36    1
    37    15    37    1
    38    15    38    1
    39    16    39    1
    40    16    40    1
