@<TRIPOS>MOLECULE
IMPHY014911
 60 59 0 0 0
SMALL
GASTEIGER

@<TRIPOS>ATOM
      1 O           3.7320    0.7500    0.0000 O.3     1  UNL1       -0.4649
      2 O           4.5981   -0.7500    0.0000 O.2     1  UNL1       -0.2509
      3 C          15.8564    0.7500    0.0000 C.3     1  UNL1       -0.0530
      4 C          14.9904    0.2500    0.0000 C.3     1  UNL1       -0.0528
      5 C           8.9282    0.7500    0.0000 C.3     1  UNL1       -0.0528
      6 C           8.0622    0.2500    0.0000 C.3     1  UNL1       -0.0530
      7 C          16.7224    0.2500    0.0000 C.3     1  UNL1       -0.0531
      8 C          14.1244    0.7500    0.0000 C.3     1  UNL1       -0.0496
      9 C           9.7942    0.2500    0.0000 C.3     1  UNL1       -0.0496
     10 C           7.1962    0.7500    0.0000 C.3     1  UNL1       -0.0526
     11 C          17.5885    0.7500    0.0000 C.3     1  UNL1       -0.0533
     12 C          13.2583    0.2500    0.0000 C.3     1  UNL1       -0.0348
     13 C          10.6603    0.7500    0.0000 C.3     1  UNL1       -0.0348
     14 C           6.3301    0.2500    0.0000 C.3     1  UNL1       -0.0430
     15 C          18.4545    0.2500    0.0000 C.3     1  UNL1       -0.0559
     16 C          12.3923    0.7500    0.0000 C.2     1  UNL1       -0.0879
     17 C          11.5263    0.2500    0.0000 C.2     1  UNL1       -0.0879
     18 C           5.4641    0.7500    0.0000 C.3     1  UNL1        0.0449
     19 C          19.3205    0.7500    0.0000 C.3     1  UNL1       -0.0653
     20 C           4.5981    0.2500    0.0000 C.2     1  UNL1        0.3071
     21 C           2.8660    0.2500    0.0000 C.3     1  UNL1        0.0896
     22 C           2.0000    0.7500    0.0000 C.3     1  UNL1       -0.0306
     23 H          16.2549    1.2250    0.0000 H       1  UNL1        0.0265
     24 H          15.4579    1.2250    0.0000 H       1  UNL1        0.0265
     25 H          14.5919   -0.2249    0.0000 H       1  UNL1        0.0265
     26 H          15.3889   -0.2249    0.0000 H       1  UNL1        0.0265
     27 H           9.3267    1.2250    0.0000 H       1  UNL1        0.0265
     28 H           8.5297    1.2250    0.0000 H       1  UNL1        0.0265
     29 H           7.6636   -0.2249    0.0000 H       1  UNL1        0.0265
     30 H           8.4607   -0.2249    0.0000 H       1  UNL1        0.0265
     31 H          16.3239   -0.2249    0.0000 H       1  UNL1        0.0265
     32 H          17.1210   -0.2249    0.0000 H       1  UNL1        0.0265
     33 H          14.5229    1.2250    0.0000 H       1  UNL1        0.0268
     34 H          13.7258    1.2250    0.0000 H       1  UNL1        0.0268
     35 H           9.3957   -0.2249    0.0000 H       1  UNL1        0.0268
     36 H          10.1928   -0.2249    0.0000 H       1  UNL1        0.0268
     37 H           7.5947    1.2250    0.0000 H       1  UNL1        0.0265
     38 H           6.7976    1.2250    0.0000 H       1  UNL1        0.0265
     39 H          17.9870    1.2250    0.0000 H       1  UNL1        0.0265
     40 H          17.1899    1.2250    0.0000 H       1  UNL1        0.0265
     41 H          12.8598   -0.2249    0.0000 H       1  UNL1        0.0307
     42 H          13.6569   -0.2249    0.0000 H       1  UNL1        0.0307
     43 H          11.0588    1.2250    0.0000 H       1  UNL1        0.0307
     44 H          10.2617    1.2250    0.0000 H       1  UNL1        0.0307
     45 H           5.9316   -0.2249    0.0000 H       1  UNL1        0.0270
     46 H           6.7287   -0.2249    0.0000 H       1  UNL1        0.0270
     47 H          18.0560   -0.2249    0.0000 H       1  UNL1        0.0263
     48 H          18.8530   -0.2249    0.0000 H       1  UNL1        0.0263
     49 H          12.3923    1.3700    0.0000 H       1  UNL1        0.0569
     50 H          11.5263   -0.3700    0.0000 H       1  UNL1        0.0569
     51 H           5.8626    1.2250    0.0000 H       1  UNL1        0.0377
     52 H           5.0656    1.2250    0.0000 H       1  UNL1        0.0377
     53 H          19.6305    0.2131    0.0000 H       1  UNL1        0.0230
     54 H          19.8574    1.0600    0.0000 H       1  UNL1        0.0230
     55 H          19.0105    1.2869    0.0000 H       1  UNL1        0.0230
     56 H           2.4675   -0.2249    0.0000 H       1  UNL1        0.0694
     57 H           3.2646   -0.2249    0.0000 H       1  UNL1        0.0694
     58 H           2.3100    1.2869    0.0000 H       1  UNL1        0.0262
     59 H           1.4631    1.0600    0.0000 H       1  UNL1        0.0262
     60 H           1.6900    0.2131    0.0000 H       1  UNL1        0.0262
@<TRIPOS>BOND
     1     1    20    1
     2     1    21    1
     3     2    20    2
     4     3     4    1
     5     3     7    1
     6     3    23    1
     7     3    24    1
     8     4     8    1
     9     4    25    1
    10     4    26    1
    11     5     6    1
    12     5     9    1
    13     5    27    1
    14     5    28    1
    15     6    10    1
    16     6    29    1
    17     6    30    1
    18     7    11    1
    19     7    31    1
    20     7    32    1
    21     8    12    1
    22     8    33    1
    23     8    34    1
    24     9    13    1
    25     9    35    1
    26     9    36    1
    27    10    14    1
    28    10    37    1
    29    10    38    1
    30    11    15    1
    31    11    39    1
    32    11    40    1
    33    12    16    1
    34    12    41    1
    35    12    42    1
    36    13    17    1
    37    13    43    1
    38    13    44    1
    39    14    18    1
    40    14    45    1
    41    14    46    1
    42    15    19    1
    43    15    47    1
    44    15    48    1
    45    16    17    2
    46    16    49    1
    47    17    50    1
    48    18    20    1
    49    18    51    1
    50    18    52    1
    51    19    53    1
    52    19    54    1
    53    19    55    1
    54    21    22    1
    55    21    56    1
    56    21    57    1
    57    22    58    1
    58    22    59    1
    59    22    60    1
