@<TRIPOS>MOLECULE
IMPHY009478
 42 44 0 0 0
SMALL
GASTEIGER

@<TRIPOS>ATOM
      1 O           6.6498    2.8145    0.0000 O.3     1  UNL1       -0.5047
      2 O           8.3780   -0.4410    0.0000 O.3     1  UNL1       -0.4644
      3 O           7.0864   -1.5950    0.0000 O.2     1  UNL1       -0.2450
      4 N           4.5274    2.2154    0.0000 N.ar    1  UNL1       -0.3513
      5 C           5.0274    0.6766    0.0000 C.ar    1  UNL1        0.0152
      6 C           5.7123   -0.1081    0.0000 C.ar    1  UNL1       -0.0197
      7 C           5.3364    1.6277    0.0000 C.ar    1  UNL1        0.0898
      8 C           4.0274    0.6766    0.0000 C.ar    1  UNL1        0.0078
      9 C           3.7183    1.6277    0.0000 C.ar    1  UNL1        0.0476
     10 C           5.3923   -1.0556    0.0000 C.3     1  UNL1       -0.0078
     11 C           6.7328    0.1006    0.0000 C.ar    1  UNL1        0.0666
     12 C           6.3518    1.8599    0.0000 C.ar    1  UNL1        0.1414
     13 C           7.0547    1.0912    0.0000 C.ar    1  UNL1       -0.0038
     14 C           3.3424   -0.1081    0.0000 C.ar    1  UNL1       -0.0520
     15 C           2.7029    1.8599    0.0000 C.ar    1  UNL1       -0.0378
     16 C           4.4118   -1.2521    0.0000 C.2     1  UNL1       -0.0809
     17 C           2.3219    0.1006    0.0000 C.ar    1  UNL1       -0.0611
     18 C           2.0000    1.0912    0.0000 C.ar    1  UNL1       -0.0598
     19 C           7.3991   -0.6451    0.0000 C.2     1  UNL1        0.3393
     20 C           4.0919   -2.1996    0.0000 C.2     1  UNL1       -0.0793
     21 C           3.1114   -2.3961    0.0000 C.3     1  UNL1       -0.0440
     22 C           4.7524   -2.9504    0.0000 C.3     1  UNL1       -0.0440
     23 C           9.0443   -1.1867    0.0000 C.3     1  UNL1        0.0820
     24 H           4.5274    2.8354    0.0000 H       1  UNL1        0.1660
     25 H           5.4068   -1.6754    0.0000 H       1  UNL1        0.0356
     26 H           6.0053   -1.1489    0.0000 H       1  UNL1        0.0356
     27 H           7.6607    1.2225    0.0000 H       1  UNL1        0.0663
     28 H           3.5408   -0.6955    0.0000 H       1  UNL1        0.0624
     29 H           2.5182    2.4517    0.0000 H       1  UNL1        0.0638
     30 H           4.0023   -0.7866    0.0000 H       1  UNL1        0.0575
     31 H           1.9088   -0.3618    0.0000 H       1  UNL1        0.0618
     32 H           1.3940    1.2225    0.0000 H       1  UNL1        0.0618
     33 H           7.2547    2.9504    0.0000 H       1  UNL1        0.2922
     34 H           2.9895   -1.7882    0.0000 H       1  UNL1        0.0274
     35 H           4.2868   -3.3599    0.0000 H       1  UNL1        0.0274
     36 H           5.1618   -3.4159    0.0000 H       1  UNL1        0.0274
     37 H           5.2179   -2.5409    0.0000 H       1  UNL1        0.0274
     38 H           2.5035   -2.5180    0.0000 H       1  UNL1        0.0274
     39 H           3.2332   -3.0040    0.0000 H       1  UNL1        0.0274
     40 H           8.5820   -1.5998    0.0000 H       1  UNL1        0.0661
     41 H           9.4574   -1.6491    0.0000 H       1  UNL1        0.0661
     42 H           9.5066   -0.7736    0.0000 H       1  UNL1        0.0661
@<TRIPOS>BOND
     1     1    12    1
     2     1    33    1
     3     2    19    1
     4     2    23    1
     5     3    19    2
     6     4     7   ar
     7     4     9   ar
     8     4    24    1
     9     5     6   ar
    10     5     7   ar
    11     5     8   ar
    12     6    10    1
    13     6    11   ar
    14     7    12   ar
    15     8     9   ar
    16     8    14   ar
    17     9    15   ar
    18    10    16    1
    19    10    25    1
    20    10    26    1
    21    11    13   ar
    22    11    19    1
    23    12    13   ar
    24    13    27    1
    25    14    17   ar
    26    14    28    1
    27    15    18   ar
    28    15    29    1
    29    16    20    2
    30    16    30    1
    31    17    18   ar
    32    17    31    1
    33    18    32    1
    34    20    21    1
    35    20    22    1
    36    21    34    1
    37    21    38    1
    38    21    39    1
    39    22    35    1
    40    22    36    1
    41    22    37    1
    42    23    40    1
    43    23    41    1
    44    23    42    1
