@<TRIPOS>MOLECULE
IMPHY009225
 61 63 0 0 0
SMALL
GASTEIGER

@<TRIPOS>ATOM
      1 O           6.5981   -2.2990    0.0000 O.3     1  UNL1       -0.4629
      2 O           3.1340   -0.2990    0.0000 O.2     1  UNL1       -0.2700
      3 O           6.5981    0.7010    0.0000 O.2     1  UNL1       -0.2740
      4 O           5.7320   -3.7990    0.0000 O.2     1  UNL1       -0.2512
      5 N           4.8660   -0.2990    0.0000 N.am    1  UNL1       -0.2791
      6 N           6.2320    2.0670    0.0000 N.am    1  UNL1       -0.3278
      7 C           5.7320   -0.7990    0.0000 C.3     1  UNL1        0.0652
      8 C           4.8660    0.7010    0.0000 C.3     1  UNL1        0.1066
      9 C           6.5981   -0.2990    0.0000 C.3     1  UNL1       -0.0058
     10 C           4.0000    1.2010    0.0000 C.3     1  UNL1       -0.0004
     11 C           5.7320   -1.7990    0.0000 C.3     1  UNL1        0.1113
     12 C           4.0000   -0.7990    0.0000 C.2     1  UNL1        0.2476
     13 C           7.4641   -0.7990    0.0000 C.ar    1  UNL1       -0.0455
     14 C           5.7320    1.2010    0.0000 C.2     1  UNL1        0.2314
     15 C           3.5000    2.0670    0.0000 C.ar    1  UNL1       -0.0451
     16 C           4.0000   -1.7990    0.0000 C.ar    1  UNL1        0.0369
     17 C           7.4641   -1.7990    0.0000 C.ar    1  UNL1       -0.0585
     18 C           8.3301   -0.2990    0.0000 C.ar    1  UNL1       -0.0585
     19 C           4.0000    2.9330    0.0000 C.ar    1  UNL1       -0.0585
     20 C           2.5000    2.0670    0.0000 C.ar    1  UNL1       -0.0585
     21 C           3.1340   -2.2990    0.0000 C.ar    1  UNL1       -0.0496
     22 C           4.8660   -2.2990    0.0000 C.ar    1  UNL1       -0.0496
     23 C           8.3301   -2.2990    0.0000 C.ar    1  UNL1       -0.0615
     24 C           9.1962   -0.7990    0.0000 C.ar    1  UNL1       -0.0615
     25 C           3.5000    3.7990    0.0000 C.ar    1  UNL1       -0.0615
     26 C           2.0000    2.9330    0.0000 C.ar    1  UNL1       -0.0615
     27 C           6.5981   -3.2990    0.0000 C.2     1  UNL1        0.3040
     28 C           9.1962   -1.7990    0.0000 C.ar    1  UNL1       -0.0617
     29 C           2.5000    3.7990    0.0000 C.ar    1  UNL1       -0.0617
     30 C           3.1340   -3.2990    0.0000 C.ar    1  UNL1       -0.0610
     31 C           4.8660   -3.2990    0.0000 C.ar    1  UNL1       -0.0610
     32 C           4.0000   -3.7990    0.0000 C.ar    1  UNL1       -0.0617
     33 C           7.4641   -3.7990    0.0000 C.3     1  UNL1        0.0332
     34 H           5.7320   -0.1790    0.0000 H       1  UNL1        0.0538
     35 H           5.4030    0.3910    0.0000 H       1  UNL1        0.0600
     36 H           6.9966    0.1759    0.0000 H       1  UNL1        0.0332
     37 H           6.1996    0.1759    0.0000 H       1  UNL1        0.0332
     38 H           3.3894    1.0933    0.0000 H       1  UNL1        0.0336
     39 H           4.4384    1.6394    0.0000 H       1  UNL1        0.0336
     40 H           5.1215   -1.6914    0.0000 H       1  UNL1        0.0716
     41 H           5.5200   -2.3816    0.0000 H       1  UNL1        0.0716
     42 H           6.9272   -2.1090    0.0000 H       1  UNL1        0.0620
     43 H           8.3301    0.3210    0.0000 H       1  UNL1        0.0620
     44 H           4.6200    2.9330    0.0000 H       1  UNL1        0.0620
     45 H           2.1900    1.5300    0.0000 H       1  UNL1        0.0620
     46 H           6.8520    2.0670    0.0000 H       1  UNL1        0.1450
     47 H           5.9220    2.6039    0.0000 H       1  UNL1        0.1450
     48 H           2.5970   -1.9890    0.0000 H       1  UNL1        0.0625
     49 H           5.4030   -1.9890    0.0000 H       1  UNL1        0.0625
     50 H           8.3301   -2.9190    0.0000 H       1  UNL1        0.0618
     51 H           9.7331   -0.4890    0.0000 H       1  UNL1        0.0618
     52 H           3.8100    4.3360    0.0000 H       1  UNL1        0.0618
     53 H           1.3800    2.9330    0.0000 H       1  UNL1        0.0618
     54 H           9.7331   -2.1090    0.0000 H       1  UNL1        0.0618
     55 H           2.1900    4.3360    0.0000 H       1  UNL1        0.0618
     56 H           2.5970   -3.6090    0.0000 H       1  UNL1        0.0618
     57 H           5.4030   -3.6090    0.0000 H       1  UNL1        0.0618
     58 H           4.0000   -4.4190    0.0000 H       1  UNL1        0.0618
     59 H           7.1541   -4.3360    0.0000 H       1  UNL1        0.0342
     60 H           8.0010   -4.1090    0.0000 H       1  UNL1        0.0342
     61 H           7.7741   -3.2621    0.0000 H       1  UNL1        0.0342
@<TRIPOS>BOND
     1     1    11    1
     2     1    27    1
     3     2    12    2
     4     3    14    2
     5     4    27    2
     6     7     5    1
     7     8     5    1
     8     5    12   am
     9     6    14   am
    10     6    46    1
    11     6    47    1
    12     7     9    1
    13     7    11    1
    14     7    34    1
    15     8    10    1
    16     8    14    1
    17     8    35    1
    18     9    13    1
    19     9    36    1
    20     9    37    1
    21    10    15    1
    22    10    38    1
    23    10    39    1
    24    11    40    1
    25    11    41    1
    26    12    16    1
    27    13    17   ar
    28    13    18   ar
    29    15    19   ar
    30    15    20   ar
    31    16    21   ar
    32    16    22   ar
    33    17    23   ar
    34    17    42    1
    35    18    24   ar
    36    18    43    1
    37    19    25   ar
    38    19    44    1
    39    20    26   ar
    40    20    45    1
    41    21    30   ar
    42    21    48    1
    43    22    31   ar
    44    22    49    1
    45    23    28   ar
    46    23    50    1
    47    24    28   ar
    48    24    51    1
    49    25    29   ar
    50    25    52    1
    51    26    29   ar
    52    26    53    1
    53    27    33    1
    54    28    54    1
    55    29    55    1
    56    30    32   ar
    57    30    56    1
    58    31    32   ar
    59    31    57    1
    60    32    58    1
    61    33    59    1
    62    33    60    1
    63    33    61    1
