@<TRIPOS>MOLECULE
IMPHY013369
 52 55 0 0 0
SMALL
GASTEIGER

@<TRIPOS>ATOM
      1 O           4.2690   -2.4276    0.0000 O.3     1  UNL1       -0.3339
      2 O           6.0010   -2.4276    0.0000 O.3     1  UNL1       -0.4608
      3 O           4.2690   -5.4276    0.0000 O.3     1  UNL1       -0.3864
      4 O           2.5369   -4.4276    0.0000 O.3     1  UNL1       -0.3866
      5 O           6.0010   -4.4276    0.0000 O.3     1  UNL1       -0.3829
      6 O           6.8671    2.0724    0.0000 O.3     1  UNL1       -0.4828
      7 O           4.2690    3.5724    0.0000 O.2     1  UNL1       -0.2917
      8 O           5.1132    5.1039    0.0000 O.3     1  UNL1       -0.5058
      9 O           8.6530    5.1175    0.0000 O.3     1  UNL1       -0.5065
     10 C           4.2690   -4.4276    0.0000 C.3     1  UNL1        0.1151
     11 C           3.4030   -3.9276    0.0000 C.3     1  UNL1        0.1096
     12 C           5.1350   -3.9276    0.0000 C.3     1  UNL1        0.1454
     13 C           3.4030   -2.9276    0.0000 C.3     1  UNL1        0.0883
     14 C           5.1350   -2.9276    0.0000 C.3     1  UNL1        0.2307
     15 C           2.5369   -2.4276    0.0000 C.3     1  UNL1       -0.0360
     16 C           6.0010    1.5724    0.0000 C.3     1  UNL1        0.1322
     17 C           6.0010   -1.4276    0.0000 C.ar    1  UNL1        0.1240
     18 C           6.0010    0.5724    0.0000 C.ar    1  UNL1       -0.0067
     19 C           5.1350    2.0724    0.0000 C.3     1  UNL1        0.0520
     20 C           6.8671   -0.9276    0.0000 C.ar    1  UNL1       -0.0195
     21 C           5.1350   -0.9276    0.0000 C.ar    1  UNL1       -0.0195
     22 C           6.8671    0.0725    0.0000 C.ar    1  UNL1       -0.0516
     23 C           5.1350    0.0725    0.0000 C.ar    1  UNL1       -0.0516
     24 C           5.1350    3.0724    0.0000 C.2     1  UNL1        0.1740
     25 C           6.0010    3.5724    0.0000 C.ar    1  UNL1        0.1007
     26 C           6.8671    3.0724    0.0000 C.ar    1  UNL1        0.1389
     27 C           5.9850    4.6140    0.0000 C.ar    1  UNL1        0.1343
     28 C           7.7771    3.5793    0.0000 C.ar    1  UNL1        0.0225
     29 C           7.7851    4.6209    0.0000 C.ar    1  UNL1        0.1238
     30 C           6.8830    5.1417    0.0000 C.ar    1  UNL1        0.0222
     31 H           4.8059   -4.7376    0.0000 H       1  UNL1        0.0648
     32 H           2.8660   -3.6176    0.0000 H       1  UNL1        0.0646
     33 H           5.6720   -3.6176    0.0000 H       1  UNL1        0.0683
     34 H           3.4030   -2.3076    0.0000 H       1  UNL1        0.0621
     35 H           5.1350   -2.3076    0.0000 H       1  UNL1        0.1084
     36 H           2.8469   -1.8906    0.0000 H       1  UNL1        0.0255
     37 H           2.0000   -2.1176    0.0000 H       1  UNL1        0.0255
     38 H           2.2269   -2.9645    0.0000 H       1  UNL1        0.0255
     39 H           3.7320   -5.7376    0.0000 H       1  UNL1        0.2100
     40 H           2.0000   -4.1175    0.0000 H       1  UNL1        0.2100
     41 H           6.0010   -5.0476    0.0000 H       1  UNL1        0.2102
     42 H           6.5380    1.2624    0.0000 H       1  UNL1        0.0789
     43 H           4.5244    2.1801    0.0000 H       1  UNL1        0.0385
     44 H           4.9230    1.4898    0.0000 H       1  UNL1        0.0385
     45 H           7.4040   -1.2376    0.0000 H       1  UNL1        0.0654
     46 H           4.5981   -1.2376    0.0000 H       1  UNL1        0.0654
     47 H           7.4040    0.3824    0.0000 H       1  UNL1        0.0623
     48 H           4.5981    0.3824    0.0000 H       1  UNL1        0.0623
     49 H           8.3104    3.2631    0.0000 H       1  UNL1        0.0691
     50 H           6.8806    5.7617    0.0000 H       1  UNL1        0.0691
     51 H           5.1061    5.7239    0.0000 H       1  UNL1        0.2922
     52 H           8.6554    5.7376    0.0000 H       1  UNL1        0.2921
@<TRIPOS>BOND
     1     1    13    1
     2     1    14    1
     3    14     2    1
     4     2    17    1
     5     3    10    1
     6     3    39    1
     7    11     4    1
     8     4    40    1
     9    12     5    1
    10     5    41    1
    11     6    16    1
    12     6    26    1
    13     7    24    2
    14     8    27    1
    15     8    51    1
    16     9    29    1
    17     9    52    1
    18    10    11    1
    19    10    12    1
    20    10    31    1
    21    11    13    1
    22    11    32    1
    23    12    14    1
    24    12    33    1
    25    13    15    1
    26    13    34    1
    27    14    35    1
    28    15    36    1
    29    15    37    1
    30    15    38    1
    31    16    18    1
    32    16    19    1
    33    16    42    1
    34    17    20   ar
    35    17    21   ar
    36    18    22   ar
    37    18    23   ar
    38    19    24    1
    39    19    43    1
    40    19    44    1
    41    20    22   ar
    42    20    45    1
    43    21    23   ar
    44    21    46    1
    45    22    47    1
    46    23    48    1
    47    24    25    1
    48    25    26   ar
    49    25    27   ar
    50    26    28   ar
    51    27    30   ar
    52    28    29   ar
    53    28    49    1
    54    29    30   ar
    55    30    50    1
