@<TRIPOS>MOLECULE
IMPHY003198
 97 101 0 0 0
SMALL
GASTEIGER

@<TRIPOS>ATOM
      1 O           7.7331    0.5000    0.0000 O.3     1  UNL1       -0.3401
      2 O           9.4651   -0.5000    0.0000 O.3     1  UNL1       -0.3405
      3 O           6.0010   -0.5000    0.0000 O.3     1  UNL1       -0.3378
      4 O          11.1972    0.5000    0.0000 O.3     1  UNL1       -0.3377
      5 O           6.8671    2.0000    0.0000 O.3     1  UNL1       -0.3460
      6 O          10.3312   -2.0000    0.0000 O.3     1  UNL1       -0.3460
      7 O          10.3312    2.0000    0.0000 O.3     1  UNL1       -0.3462
      8 O           4.2690   -0.5000    0.0000 O.3     1  UNL1       -0.3431
      9 O          12.9292    0.5000    0.0000 O.3     1  UNL1       -0.3315
     10 O           7.7331    2.5000    0.0000 O.3     1  UNL1       -0.3841
     11 O           4.2690    0.5000    0.0000 O.3     1  UNL1       -0.3864
     12 O          12.9292   -0.5000    0.0000 O.3     1  UNL1       -0.3864
     13 O           4.2690    2.5000    0.0000 O.3     1  UNL1       -0.3869
     14 O          12.9292   -2.5000    0.0000 O.3     1  UNL1       -0.3869
     15 O           9.4651    3.5000    0.0000 O.3     1  UNL1       -0.3649
     16 O           6.0010   -2.5000    0.0000 O.3     1  UNL1       -0.3841
     17 O          11.1972    2.5000    0.0000 O.3     1  UNL1       -0.3841
     18 O           4.2690   -3.5000    0.0000 O.3     1  UNL1       -0.3864
     19 O          14.6613    2.5000    0.0000 O.3     1  UNL1       -0.3740
     20 O           2.5369   -2.5000    0.0000 O.3     1  UNL1       -0.3866
     21 O          12.9292    3.5000    0.0000 O.3     1  UNL1       -0.3864
     22 O          15.5273    1.0000    0.0000 O.3     1  UNL1       -0.4788
     23 O          14.6613   -0.5000    0.0000 O.2     1  UNL1       -0.2480
     24 C           8.5991    1.0000    0.0000 C.3     1  UNL1        0.1206
     25 C           9.4651    0.5000    0.0000 C.3     1  UNL1        0.1138
     26 C           6.0010    0.5000    0.0000 C.3     1  UNL1        0.1406
     27 C          11.1972   -0.5000    0.0000 C.3     1  UNL1        0.1406
     28 C           6.8671    1.0000    0.0000 C.3     1  UNL1        0.1884
     29 C          10.3312   -1.0000    0.0000 C.3     1  UNL1        0.1884
     30 C           8.5991    2.0000    0.0000 C.3     1  UNL1        0.1343
     31 C           5.1350    1.0000    0.0000 C.3     1  UNL1        0.1141
     32 C          12.0632   -1.0000    0.0000 C.3     1  UNL1        0.1141
     33 C          10.3312    1.0000    0.0000 C.3     1  UNL1        0.0796
     34 C           5.1350   -1.0000    0.0000 C.3     1  UNL1        0.1884
     35 C           5.1350    2.0000    0.0000 C.3     1  UNL1        0.1069
     36 C          12.0632   -2.0000    0.0000 C.3     1  UNL1        0.1069
     37 C           9.4651    2.5000    0.0000 C.3     1  UNL1        0.1850
     38 C          12.0632    1.0000    0.0000 C.3     1  UNL1        0.1891
     39 C           5.1350   -2.0000    0.0000 C.3     1  UNL1        0.1341
     40 C          12.0632    2.0000    0.0000 C.3     1  UNL1        0.1342
     41 C           4.2690   -2.5000    0.0000 C.3     1  UNL1        0.1140
     42 C           6.0010    2.5000    0.0000 C.3     1  UNL1        0.0792
     43 C           3.4030   -2.0000    0.0000 C.3     1  UNL1        0.1095
     44 C          12.9292    2.5000    0.0000 C.3     1  UNL1        0.1148
     45 C          11.1972   -2.5000    0.0000 C.3     1  UNL1        0.0792
     46 C           3.4030   -1.0000    0.0000 C.3     1  UNL1        0.0873
     47 C          13.7953    2.0000    0.0000 C.3     1  UNL1        0.1232
     48 C          13.7953    1.0000    0.0000 C.3     1  UNL1        0.1862
     49 C           2.5369   -0.5000    0.0000 C.3     1  UNL1       -0.0361
     50 C          14.6613    0.5000    0.0000 C.2     1  UNL1        0.3367
     51 C          14.6613    3.5000    0.0000 C.3     1  UNL1        0.0370
     52 H           8.5991    0.3800    0.0000 H       1  UNL1        0.0651
     53 H          10.0021    0.1900    0.0000 H       1  UNL1        0.0647
     54 H           5.4641    0.1900    0.0000 H       1  UNL1        0.0675
     55 H          11.7341   -0.1900    0.0000 H       1  UNL1        0.0675
     56 H           6.8671    0.3800    0.0000 H       1  UNL1        0.0938
     57 H           9.7942   -1.3100    0.0000 H       1  UNL1        0.0938
     58 H           8.0622    1.6900    0.0000 H       1  UNL1        0.0671
     59 H           4.5981    1.3100    0.0000 H       1  UNL1        0.0648
     60 H          12.6002   -1.3100    0.0000 H       1  UNL1        0.0648
     61 H          10.5432    0.4174    0.0000 H       1  UNL1        0.0587
     62 H          10.9417    1.1077    0.0000 H       1  UNL1        0.0587
     63 H           5.1350   -0.3800    0.0000 H       1  UNL1        0.0938
     64 H           5.1350    2.6200    0.0000 H       1  UNL1        0.0643
     65 H          12.0632   -2.6200    0.0000 H       1  UNL1        0.0643
     66 H           8.9282    2.8100    0.0000 H       1  UNL1        0.0935
     67 H          11.5263    1.3100    0.0000 H       1  UNL1        0.0938
     68 H           5.1350   -2.6200    0.0000 H       1  UNL1        0.0671
     69 H          12.0632    2.6200    0.0000 H       1  UNL1        0.0671
     70 H           3.7320   -2.8100    0.0000 H       1  UNL1        0.0648
     71 H           6.3996    2.9750    0.0000 H       1  UNL1        0.0587
     72 H           5.6025    2.9750    0.0000 H       1  UNL1        0.0587
     73 H           3.4030   -2.6200    0.0000 H       1  UNL1        0.0646
     74 H          13.4662    2.8100    0.0000 H       1  UNL1        0.0648
     75 H          10.7987   -2.9750    0.0000 H       1  UNL1        0.0587
     76 H          11.5957   -2.9750    0.0000 H       1  UNL1        0.0587
     77 H           3.4030   -0.3800    0.0000 H       1  UNL1        0.0621
     78 H          14.3322    1.6900    0.0000 H       1  UNL1        0.0654
     79 H          13.7953    0.3800    0.0000 H       1  UNL1        0.0741
     80 H           7.7331    3.1200    0.0000 H       1  UNL1        0.2101
     81 H           3.7320    0.8100    0.0000 H       1  UNL1        0.2100
     82 H           2.8469    0.0369    0.0000 H       1  UNL1        0.0255
     83 H           2.0000   -0.1900    0.0000 H       1  UNL1        0.0255
     84 H           2.2269   -1.0369    0.0000 H       1  UNL1        0.0255
     85 H          13.4662   -0.8100    0.0000 H       1  UNL1        0.2100
     86 H           4.2690    3.1200    0.0000 H       1  UNL1        0.2100
     87 H          12.9292   -3.1200    0.0000 H       1  UNL1        0.2100
     88 H          10.0021    3.8100    0.0000 H       1  UNL1        0.2126
     89 H           6.0010   -3.1200    0.0000 H       1  UNL1        0.2101
     90 H          11.1972    3.1200    0.0000 H       1  UNL1        0.2101
     91 H           3.7320   -3.8100    0.0000 H       1  UNL1        0.2100
     92 H           2.0000   -2.1900    0.0000 H       1  UNL1        0.2100
     93 H          13.4662    3.8100    0.0000 H       1  UNL1        0.2100
     94 H          15.2813    3.5000    0.0000 H       1  UNL1        0.0524
     95 H          14.6613    4.1200    0.0000 H       1  UNL1        0.0524
     96 H          14.0413    3.5000    0.0000 H       1  UNL1        0.0524
     97 H          16.0643    0.6900    0.0000 H       1  UNL1        0.2951
@<TRIPOS>BOND
     1     1    24    1
     2     1    28    1
     3     2    25    1
     4     2    29    1
     5     3    26    1
     6     3    34    1
     7     4    27    1
     8     4    38    1
     9     5    28    1
    10     5    42    1
    11     6    29    1
    12     6    45    1
    13     7    33    1
    14     7    37    1
    15     8    34    1
    16     8    46    1
    17     9    38    1
    18     9    48    1
    19    10    30    1
    20    10    80    1
    21    11    31    1
    22    11    81    1
    23    12    32    1
    24    12    85    1
    25    13    35    1
    26    13    86    1
    27    14    36    1
    28    14    87    1
    29    15    37    1
    30    15    88    1
    31    16    39    1
    32    16    89    1
    33    17    40    1
    34    17    90    1
    35    18    41    1
    36    18    91    1
    37    19    47    1
    38    19    51    1
    39    20    43    1
    40    20    92    1
    41    21    44    1
    42    21    93    1
    43    22    50    1
    44    22    97    1
    45    23    50    2
    46    24    25    1
    47    24    30    1
    48    24    52    1
    49    25    33    1
    50    25    53    1
    51    26    28    1
    52    26    31    1
    53    26    54    1
    54    27    29    1
    55    27    32    1
    56    27    55    1
    57    28    56    1
    58    29    57    1
    59    30    37    1
    60    30    58    1
    61    31    35    1
    62    31    59    1
    63    32    36    1
    64    32    60    1
    65    33    61    1
    66    33    62    1
    67    34    39    1
    68    34    63    1
    69    35    42    1
    70    35    64    1
    71    36    45    1
    72    36    65    1
    73    37    66    1
    74    38    40    1
    75    38    67    1
    76    39    41    1
    77    39    68    1
    78    40    44    1
    79    40    69    1
    80    41    43    1
    81    41    70    1
    82    42    71    1
    83    42    72    1
    84    43    46    1
    85    43    73    1
    86    44    47    1
    87    44    74    1
    88    45    75    1
    89    45    76    1
    90    46    49    1
    91    46    77    1
    92    47    48    1
    93    47    78    1
    94    48    50    1
    95    48    79    1
    96    49    82    1
    97    49    83    1
    98    49    84    1
    99    51    94    1
   100    51    95    1
   101    51    96    1
