@<TRIPOS>MOLECULE
IMPHY000431
 60 62 0 0 0
SMALL
GASTEIGER

@<TRIPOS>ATOM
      1 O           6.8518   -1.8459    0.0000 O.3     1  UNL1       -0.3607
      2 O           6.9152    0.4408    0.0000 O.3     1  UNL1       -0.4507
      3 O           3.5895   -3.2592    0.0000 O.3     1  UNL1       -0.4573
      4 O           4.1100    1.6933    0.0000 O.3     1  UNL1       -0.4532
      5 O           7.3768    2.1561    0.0000 O.2     1  UNL1       -0.2452
      6 O           5.7221    3.2497    0.0000 O.3     1  UNL1       -0.4598
      7 O           5.1718   -3.9637    0.0000 O.2     1  UNL1       -0.2511
      8 O           2.4158    1.3332    0.0000 O.2     1  UNL1       -0.2453
      9 O           4.2236    4.1184    0.0000 O.2     1  UNL1       -0.2512
     10 C           5.8568   -1.9502    0.0000 C.3     1  UNL1        0.1008
     11 C           6.2635   -1.0367    0.0000 C.3     1  UNL1        0.1290
     12 C           6.0556   -0.0585    0.0000 C.3     1  UNL1        0.1574
     13 C           4.9908   -2.4502    0.0000 C.3     1  UNL1        0.0195
     14 C           5.4500   -2.8638    0.0000 C.3     1  UNL1       -0.0331
     15 C           5.3125    0.6106    0.0000 C.2     1  UNL1        0.0266
     16 C           3.9962   -2.3457    0.0000 C.3     1  UNL1        0.1242
     17 C           4.3179    0.7151    0.0000 C.3     1  UNL1        0.1324
     18 C           5.7191    1.5177    0.0000 C.2     1  UNL1        0.0799
     19 C           3.4519    0.2151    0.0000 C.3     1  UNL1        0.0095
     20 C           3.2531   -1.6766    0.0000 C.2     1  UNL1       -0.0448
     21 C           6.7077    1.4129    0.0000 C.2     1  UNL1        0.3393
     22 C           3.0452   -0.6984    0.0000 C.2     1  UNL1       -0.0693
     23 C           5.2206    2.3846    0.0000 C.3     1  UNL1        0.1243
     24 C           2.0506   -0.5939    0.0000 C.3     1  UNL1       -0.0435
     25 C           4.1773   -4.0682    0.0000 C.2     1  UNL1        0.3045
     26 C           3.1590    2.0023    0.0000 C.2     1  UNL1        0.3349
     27 C           3.7705   -4.9818    0.0000 C.3     1  UNL1        0.0333
     28 C           2.9511    2.9804    0.0000 C.2     1  UNL1        0.0265
     29 C           5.2236    4.1166    0.0000 C.2     1  UNL1        0.3043
     30 C           2.0000    3.2895    0.0000 C.3     1  UNL1       -0.0335
     31 C           5.7251    4.9818    0.0000 C.3     1  UNL1        0.0332
     32 C           3.6942    3.6496    0.0000 C.2     1  UNL1       -0.0890
     33 H           7.0400   -0.6908    0.0000 H       1  UNL1        0.0666
     34 H           6.8326   -0.4032    0.0000 H       1  UNL1        0.0811
     35 H           4.7386   -3.0166    0.0000 H       1  UNL1        0.0333
     36 H           4.8618   -1.8438    0.0000 H       1  UNL1        0.0333
     37 H           4.8836   -2.6116    0.0000 H       1  UNL1        0.0258
     38 H           5.1979   -3.4302    0.0000 H       1  UNL1        0.0258
     39 H           6.0164   -3.1159    0.0000 H       1  UNL1        0.0258
     40 H           3.3898   -2.4746    0.0000 H       1  UNL1        0.0780
     41 H           3.7515    0.9673    0.0000 H       1  UNL1        0.0787
     42 H           3.3230    0.8216    0.0000 H       1  UNL1        0.0349
     43 H           2.8353    0.2799    0.0000 H       1  UNL1        0.0349
     44 H           2.7162   -1.9866    0.0000 H       1  UNL1        0.0608
     45 H           4.7464    2.7839    0.0000 H       1  UNL1        0.0751
     46 H           4.7450    1.9869    0.0000 H       1  UNL1        0.0751
     47 H           2.1155    0.0227    0.0000 H       1  UNL1        0.0274
     48 H           1.4340   -0.5291    0.0000 H       1  UNL1        0.0274
     49 H           1.9858   -1.2105    0.0000 H       1  UNL1        0.0274
     50 H           3.2041   -4.7296    0.0000 H       1  UNL1        0.0342
     51 H           3.5184   -5.5482    0.0000 H       1  UNL1        0.0342
     52 H           4.3369   -5.2340    0.0000 H       1  UNL1        0.0342
     53 H           2.1916    3.8791    0.0000 H       1  UNL1        0.0280
     54 H           1.4103    3.4811    0.0000 H       1  UNL1        0.0280
     55 H           1.8084    2.6998    0.0000 H       1  UNL1        0.0280
     56 H           6.2615    4.6709    0.0000 H       1  UNL1        0.0342
     57 H           6.0361    5.5182    0.0000 H       1  UNL1        0.0342
     58 H           5.1887    5.2927    0.0000 H       1  UNL1        0.0342
     59 H           4.2839    3.4580    0.0000 H       1  UNL1        0.0540
     60 H           3.5653    4.2560    0.0000 H       1  UNL1        0.0540
@<TRIPOS>BOND
     1     1    10    1
     2     1    11    1
     3     2    12    1
     4     2    21    1
     5    16     3    1
     6     3    25    1
     7    17     4    1
     8     4    26    1
     9     5    21    2
    10     6    23    1
    11     6    29    1
    12     7    25    2
    13     8    26    2
    14     9    29    2
    15    10    11    1
    16    10    13    1
    17    10    14    1
    18    11    12    1
    19    11    33    1
    20    12    15    1
    21    12    34    1
    22    13    16    1
    23    13    35    1
    24    13    36    1
    25    14    37    1
    26    14    38    1
    27    14    39    1
    28    15    17    1
    29    15    18    2
    30    16    20    1
    31    16    40    1
    32    17    19    1
    33    17    41    1
    34    18    21    1
    35    18    23    1
    36    19    22    1
    37    19    42    1
    38    19    43    1
    39    20    22    2
    40    20    44    1
    41    22    24    1
    42    23    45    1
    43    23    46    1
    44    24    47    1
    45    24    48    1
    46    24    49    1
    47    25    27    1
    48    26    28    1
    49    27    50    1
    50    27    51    1
    51    27    52    1
    52    28    30    1
    53    28    32    2
    54    29    31    1
    55    30    53    1
    56    30    54    1
    57    30    55    1
    58    31    56    1
    59    31    57    1
    60    31    58    1
    61    32    59    1
    62    32    60    1
