@<TRIPOS>MOLECULE
IMPHY016625
 26 27 0 0 0
SMALL
GASTEIGER

@<TRIPOS>ATOM
      1 O           2.0000    1.0000    0.0000 O.3     1  UNL1       -0.3825
      2 C           2.8660    0.5000    0.0000 C.3     1  UNL1        0.1052
      3 C           2.8660   -0.5000    0.0000 C.ar    1  UNL1       -0.0148
      4 C           3.7320    1.0000    0.0000 C.ar    1  UNL1       -0.0148
      5 C           2.0000   -1.0000    0.0000 C.ar    1  UNL1       -0.0558
      6 C           4.5981    0.5000    0.0000 C.ar    1  UNL1       -0.0558
      7 C           3.7320   -1.0000    0.0000 C.ar    1  UNL1       -0.0558
      8 C           3.7320    2.0000    0.0000 C.ar    1  UNL1       -0.0558
      9 C           2.0000   -2.0000    0.0000 C.ar    1  UNL1       -0.0614
     10 C           5.4641    1.0000    0.0000 C.ar    1  UNL1       -0.0614
     11 C           3.7320   -2.0000    0.0000 C.ar    1  UNL1       -0.0614
     12 C           4.5981    2.5000    0.0000 C.ar    1  UNL1       -0.0614
     13 C           2.8660   -2.5000    0.0000 C.ar    1  UNL1       -0.0617
     14 C           5.4641    2.0000    0.0000 C.ar    1  UNL1       -0.0617
     15 H           2.8660    1.1200    0.0000 H       1  UNL1        0.0694
     16 H           1.4631   -0.6900    0.0000 H       1  UNL1        0.0621
     17 H           4.5981   -0.1200    0.0000 H       1  UNL1        0.0621
     18 H           4.2690   -0.6900    0.0000 H       1  UNL1        0.0621
     19 H           3.1951    2.3100    0.0000 H       1  UNL1        0.0621
     20 H           1.4631   -2.3100    0.0000 H       1  UNL1        0.0618
     21 H           6.0010    0.6900    0.0000 H       1  UNL1        0.0618
     22 H           4.2690   -2.3100    0.0000 H       1  UNL1        0.0618
     23 H           4.5981    3.1200    0.0000 H       1  UNL1        0.0618
     24 H           2.0000    1.6200    0.0000 H       1  UNL1        0.2107
     25 H           2.8660   -3.1200    0.0000 H       1  UNL1        0.0618
     26 H           6.0010    2.3100    0.0000 H       1  UNL1        0.0618
@<TRIPOS>BOND
     1     1     2    1
     2     1    24    1
     3     2     3    1
     4     2     4    1
     5     2    15    1
     6     3     5   ar
     7     3     7   ar
     8     4     6   ar
     9     4     8   ar
    10     5     9   ar
    11     5    16    1
    12     6    10   ar
    13     6    17    1
    14     7    11   ar
    15     7    18    1
    16     8    12   ar
    17     8    19    1
    18     9    13   ar
    19     9    20    1
    20    10    14   ar
    21    10    21    1
    22    11    13   ar
    23    11    22    1
    24    12    14   ar
    25    12    23    1
    26    13    25    1
    27    14    26    1
