@<TRIPOS>MOLECULE
IMPHY015781
 39 42 0 0 0
SMALL
GASTEIGER

@<TRIPOS>ATOM
      1 O           4.7600    1.1428    0.0000 O.3     1  UNL1       -0.4808
      2 O           3.8047   -0.4062    0.0000 O.2     1  UNL1       -0.4546
      3 O           3.0000    4.1774    0.0000 O.3     1  UNL1       -0.5061
      4 O           4.0000   -3.9505    0.0000 O.3     1  UNL1       -0.5066
      5 C           5.6660    1.6566    0.0000 C.3     1  UNL1        0.1235
      6 C           3.8660    1.6774    0.0000 C.ar    1  UNL1        0.1430
      7 C           3.8660    2.6774    0.0000 C.ar    1  UNL1        0.0586
      8 C           5.6660    2.6982    0.0000 C.2     1  UNL1       -0.0408
      9 C           3.0000    1.1774    0.0000 C.ar    1  UNL1        0.0598
     10 C           6.6660    1.6528    0.0000 C.3     1  UNL1       -0.0215
     11 C           6.1627    0.7887    0.0000 C.3     1  UNL1       -0.0215
     12 C           4.7600    3.2121    0.0000 C.2     1  UNL1       -0.0478
     13 C           3.0000    0.1774    0.0000 C.ar    1  UNL1        0.1398
     14 C           3.0000    3.1774    0.0000 C.ar    1  UNL1        0.1275
     15 C           2.1340    1.6774    0.0000 C.ar    1  UNL1       -0.0441
     16 C           2.1953   -0.4062    0.0000 C.ar    1  UNL1       -0.0080
     17 C           2.5000   -1.3524    0.0000 C.ar    1  UNL1        0.0210
     18 C           2.1340    2.6774    0.0000 C.ar    1  UNL1       -0.0187
     19 C           3.5000   -1.3524    0.0000 C.ar    1  UNL1        0.1391
     20 C           2.0000   -2.2184    0.0000 C.ar    1  UNL1       -0.0475
     21 C           4.0000   -2.2184    0.0000 C.ar    1  UNL1        0.0227
     22 C           3.5000   -3.0845    0.0000 C.ar    1  UNL1        0.1204
     23 C           2.5000   -3.0845    0.0000 C.ar    1  UNL1       -0.0194
     24 H           6.2018    3.0103    0.0000 H       1  UNL1        0.0611
     25 H           6.6636    1.0328    0.0000 H       1  UNL1        0.0271
     26 H           7.2860    1.6504    0.0000 H       1  UNL1        0.0271
     27 H           6.6684    2.2728    0.0000 H       1  UNL1        0.0271
     28 H           5.6246    0.4807    0.0000 H       1  UNL1        0.0271
     29 H           6.4706    0.2505    0.0000 H       1  UNL1        0.0271
     30 H           6.7008    1.0966    0.0000 H       1  UNL1        0.0271
     31 H           4.7528    3.8320    0.0000 H       1  UNL1        0.0624
     32 H           1.5970    1.3674    0.0000 H       1  UNL1        0.0627
     33 H           1.6060   -0.2136    0.0000 H       1  UNL1        0.0661
     34 H           1.5970    2.9874    0.0000 H       1  UNL1        0.0654
     35 H           1.3800   -2.2184    0.0000 H       1  UNL1        0.0626
     36 H           4.6200   -2.2184    0.0000 H       1  UNL1        0.0691
     37 H           2.1900   -3.6214    0.0000 H       1  UNL1        0.0654
     38 H           2.4631    4.4874    0.0000 H       1  UNL1        0.2922
     39 H           3.6900   -4.4874    0.0000 H       1  UNL1        0.2921
@<TRIPOS>BOND
     1     1     5    1
     2     1     6    1
     3     2    13   ar
     4     2    19   ar
     5     3    14    1
     6     3    38    1
     7     4    22    1
     8     4    39    1
     9     5     8    1
    10     5    10    1
    11     5    11    1
    12     6     7   ar
    13     6     9   ar
    14     7    12    1
    15     7    14   ar
    16     8    12    2
    17     8    24    1
    18     9    13    1
    19     9    15   ar
    20    10    25    1
    21    10    26    1
    22    10    27    1
    23    11    28    1
    24    11    29    1
    25    11    30    1
    26    12    31    1
    27    13    16   ar
    28    14    18   ar
    29    15    18   ar
    30    15    32    1
    31    16    17   ar
    32    16    33    1
    33    17    19   ar
    34    17    20   ar
    35    18    34    1
    36    19    21   ar
    37    20    23   ar
    38    20    35    1
    39    21    22   ar
    40    21    36    1
    41    22    23   ar
    42    23    37    1
