@<TRIPOS>MOLECULE
IMPHY015127
 29 30 0 0 0
SMALL
GASTEIGER

@<TRIPOS>ATOM
      1 O           2.9010   -1.6964    0.0000 O.3     1  UNL1       -0.3907
      2 C           4.6964   -0.1981    0.0000 C.3     1  UNL1       -0.0053
      3 C           4.9552    0.7678    0.0000 C.3     1  UNL1       -0.0329
      4 C           2.9816    0.1496    0.0000 C.3     1  UNL1       -0.0056
      5 C           3.3236   -0.7901    0.0000 C.3     1  UNL1        0.0660
      6 C           4.2186    1.7504    0.0000 C.3     1  UNL1       -0.0418
      7 C           6.0953   -0.7069    0.0000 C.3     1  UNL1       -0.0450
      8 C           6.3541    0.2590    0.0000 C.3     1  UNL1       -0.0490
      9 C           4.4375   -1.1640    0.0000 C.3     1  UNL1       -0.0572
     10 C           2.0000   -0.0412    0.0000 C.3     1  UNL1       -0.0572
     11 C           2.4968    1.0242    0.0000 C.3     1  UNL1       -0.0572
     12 H           4.9411    0.1480    0.0000 H       1  UNL1        0.0307
     13 H           3.7556   -1.2349    0.0000 H       1  UNL1        0.0604
     14 H           4.5364    2.2828    0.0000 H       1  UNL1        0.0274
     15 H           3.6054    1.8424    0.0000 H       1  UNL1        0.0274
     16 H           5.9004   -1.2955    0.0000 H       1  UNL1        0.0271
     17 H           6.6893   -0.8847    0.0000 H       1  UNL1        0.0271
     18 H           6.9481    0.0812    0.0000 H       1  UNL1        0.0268
     19 H           6.5490    0.8476    0.0000 H       1  UNL1        0.0268
     20 H           3.8387   -1.0036    0.0000 H       1  UNL1        0.0236
     21 H           4.2771   -1.7629    0.0000 H       1  UNL1        0.0236
     22 H           5.0364   -1.3245    0.0000 H       1  UNL1        0.0236
     23 H           1.8817    0.5674    0.0000 H       1  UNL1        0.0236
     24 H           1.3914   -0.1595    0.0000 H       1  UNL1        0.0236
     25 H           2.1183   -0.6498    0.0000 H       1  UNL1        0.0236
     26 H           3.0391    1.3248    0.0000 H       1  UNL1        0.0236
     27 H           2.1962    1.5665    0.0000 H       1  UNL1        0.0236
     28 H           1.9546    0.7236    0.0000 H       1  UNL1        0.0236
     29 H           2.2834   -1.7504    0.0000 H       1  UNL1        0.2098
@<TRIPOS>BOND
     1     5     1    1
     2     1    29    1
     3     2     5    1
     4     2     6    1
     5     2     7    1
     6     2     9    1
     7     3     4    1
     8     3     6    1
     9     3     8    1
    10     3    12    1
    11     4     5    1
    12     4    10    1
    13     4    11    1
    14     5    13    1
    15     6    14    1
    16     6    15    1
    17     7     8    1
    18     7    16    1
    19     7    17    1
    20     8    18    1
    21     8    19    1
    22     9    20    1
    23     9    21    1
    24     9    22    1
    25    10    23    1
    26    10    24    1
    27    10    25    1
    28    11    26    1
    29    11    27    1
    30    11    28    1
