@<TRIPOS>MOLECULE
IMPHY008075
 146 156 0 0 0
SMALL
GASTEIGER

@<TRIPOS>ATOM
      1 O          15.8860    0.3536    0.0000 O.3     1  UNL1       -0.4617
      2 O          11.1972   -0.3536    0.0000 O.3     1  UNL1       -0.4617
      3 O          12.0632   -1.8536    0.0000 O.2     1  UNL1       -0.2505
      4 O          15.0200    1.8536    0.0000 O.2     1  UNL1       -0.2505
      5 O          18.4841    0.8536    0.0000 O.3     1  UNL1       -0.3302
      6 O           8.5991   -0.8536    0.0000 O.3     1  UNL1       -0.3302
      7 O          11.1881    4.0765    0.0000 O.3     1  UNL1       -0.5068
      8 O          15.8952   -4.0765    0.0000 O.3     1  UNL1       -0.5068
      9 O          16.7521   -1.1464    0.0000 O.3     1  UNL1       -0.3864
     10 O          10.3312    1.1464    0.0000 O.3     1  UNL1       -0.3864
     11 O          18.4841   -2.1465    0.0000 O.3     1  UNL1       -0.3864
     12 O           8.5991    2.1465    0.0000 O.3     1  UNL1       -0.3864
     13 O          20.2162    0.8536    0.0000 O.3     1  UNL1       -0.4532
     14 O           6.8671   -0.8536    0.0000 O.3     1  UNL1       -0.4532
     15 O           6.8671    1.1464    0.0000 O.3     1  UNL1       -0.3829
     16 O          20.2162   -1.1464    0.0000 O.3     1  UNL1       -0.3829
     17 O           6.0010   -3.3536    0.0000 O.2     1  UNL1       -0.4507
     18 O          21.0822    3.3536    0.0000 O.2     1  UNL1       -0.4507
     19 O           8.5991   -1.8536    0.0000 O.2     1  UNL1       -0.2830
     20 O          18.4841    1.8536    0.0000 O.2     1  UNL1       -0.2830
     21 O           9.5033   -3.3504    0.0000 O.3     1  UNL1       -0.5027
     22 O          17.5800    3.3504    0.0000 O.3     1  UNL1       -0.5027
     23 O          17.5642    5.3987    0.0000 O.3     1  UNL1       -0.4885
     24 O           9.5191   -5.3987    0.0000 O.3     1  UNL1       -0.4885
     25 O           7.7452   -6.4228    0.0000 O.3     1  UNL1       -0.5031
     26 O          19.3380    6.4228    0.0000 O.3     1  UNL1       -0.5031
     27 O           2.5369   -0.3536    0.0000 O.3     1  UNL1       -0.5068
     28 O          24.5463    0.3536    0.0000 O.3     1  UNL1       -0.5068
     29 C          13.1881    0.6124    0.0000 C.3     1  UNL1        0.0111
     30 C          13.8952   -0.6124    0.0000 C.3     1  UNL1        0.0111
     31 C          12.9292   -0.3536    0.0000 C.3     1  UNL1        0.0715
     32 C          14.1540    0.3536    0.0000 C.3     1  UNL1        0.0715
     33 C          14.3952   -1.4784    0.0000 C.ar    1  UNL1       -0.0424
     34 C          12.6881    1.4784    0.0000 C.ar    1  UNL1       -0.0424
     35 C          12.0632   -0.8536    0.0000 C.2     1  UNL1        0.3115
     36 C          15.0200    0.8536    0.0000 C.2     1  UNL1        0.3115
     37 C          13.1881    2.3444    0.0000 C.ar    1  UNL1       -0.0548
     38 C          13.8952   -2.3444    0.0000 C.ar    1  UNL1       -0.0548
     39 C          11.6881    1.4784    0.0000 C.ar    1  UNL1       -0.0548
     40 C          15.3952   -1.4784    0.0000 C.ar    1  UNL1       -0.0548
     41 C          10.3312   -0.8536    0.0000 C.3     1  UNL1        0.1212
     42 C          16.7521    0.8536    0.0000 C.3     1  UNL1        0.1212
     43 C          12.6881    3.2104    0.0000 C.ar    1  UNL1       -0.0199
     44 C          14.3952   -3.2104    0.0000 C.ar    1  UNL1       -0.0199
     45 C          11.1881    2.3444    0.0000 C.ar    1  UNL1       -0.0199
     46 C          15.8952   -2.3444    0.0000 C.ar    1  UNL1       -0.0199
     47 C          17.6181    0.3536    0.0000 C.3     1  UNL1        0.1250
     48 C           9.4651   -0.3536    0.0000 C.3     1  UNL1        0.1250
     49 C          15.3952   -3.2104    0.0000 C.ar    1  UNL1        0.1169
     50 C          11.6881    3.2104    0.0000 C.ar    1  UNL1        0.1169
     51 C          17.6181   -0.6464    0.0000 C.3     1  UNL1        0.1130
     52 C           9.4651    0.6464    0.0000 C.3     1  UNL1        0.1130
     53 C          18.4841   -1.1464    0.0000 C.3     1  UNL1        0.1152
     54 C           8.5991    1.1464    0.0000 C.3     1  UNL1        0.1152
     55 C          19.3501   -0.6464    0.0000 C.3     1  UNL1        0.1454
     56 C           7.7331    0.6464    0.0000 C.3     1  UNL1        0.1454
     57 C          19.3501    0.3536    0.0000 C.3     1  UNL1        0.2312
     58 C           7.7331   -0.3536    0.0000 C.3     1  UNL1        0.2312
     59 C           6.8671   -1.8536    0.0000 C.ar    1  UNL1        0.2138
     60 C          20.2162    1.8536    0.0000 C.ar    1  UNL1        0.2138
     61 C           6.0010   -2.3535    0.0000 C.ar    1  UNL1        0.1809
     62 C          21.0822    2.3535    0.0000 C.ar    1  UNL1        0.1809
     63 C           7.7331   -2.3535    0.0000 C.ar    1  UNL1        0.2383
     64 C          19.3501    2.3535    0.0000 C.ar    1  UNL1        0.2383
     65 C           7.7331   -3.3536    0.0000 C.ar    1  UNL1        0.1128
     66 C          19.3501    3.3536    0.0000 C.ar    1  UNL1        0.1128
     67 C          21.9482    1.8536    0.0000 C.ar    1  UNL1        0.0213
     68 C           5.1350   -1.8536    0.0000 C.ar    1  UNL1        0.0213
     69 C          20.2162    3.8536    0.0000 C.ar    1  UNL1        0.1468
     70 C           6.8671   -3.8536    0.0000 C.ar    1  UNL1        0.1468
     71 C          18.4401    3.8604    0.0000 C.ar    1  UNL1        0.1769
     72 C           8.6431   -3.8604    0.0000 C.ar    1  UNL1        0.1769
     73 C          20.2322    4.8951    0.0000 C.ar    1  UNL1        0.0268
     74 C           6.8510   -4.8951    0.0000 C.ar    1  UNL1        0.0268
     75 C          22.8142    2.3535    0.0000 C.ar    1  UNL1       -0.0475
     76 C           4.2690   -2.3535    0.0000 C.ar    1  UNL1       -0.0475
     77 C          21.9482    0.8536    0.0000 C.ar    1  UNL1       -0.0475
     78 C           5.1350   -0.8536    0.0000 C.ar    1  UNL1       -0.0475
     79 C          18.4321    4.9020    0.0000 C.ar    1  UNL1        0.2040
     80 C           8.6511   -4.9020    0.0000 C.ar    1  UNL1        0.2040
     81 C          19.3342    5.4228    0.0000 C.ar    1  UNL1        0.1657
     82 C           7.7490   -5.4228    0.0000 C.ar    1  UNL1        0.1657
     83 C          23.6803    1.8536    0.0000 C.ar    1  UNL1       -0.0195
     84 C           3.4030   -1.8536    0.0000 C.ar    1  UNL1       -0.0195
     85 C          22.8142    0.3536    0.0000 C.ar    1  UNL1       -0.0195
     86 C           4.2690   -0.3536    0.0000 C.ar    1  UNL1       -0.0195
     87 C           3.4030   -0.8536    0.0000 C.ar    1  UNL1        0.1169
     88 C          23.6803    0.8536    0.0000 C.ar    1  UNL1        0.1169
     89 C           9.5229   -6.3986    0.0000 C.3     1  UNL1        0.0791
     90 C          17.5603    6.3986    0.0000 C.3     1  UNL1        0.0791
     91 H          13.5655    1.1042    0.0000 H       1  UNL1        0.0365
     92 H          14.5099   -0.5314    0.0000 H       1  UNL1        0.0365
     93 H          12.4374    0.0239    0.0000 H       1  UNL1        0.0426
     94 H          14.0731    0.9682    0.0000 H       1  UNL1        0.0426
     95 H          13.2752   -2.3444    0.0000 H       1  UNL1        0.0622
     96 H          13.8081    2.3444    0.0000 H       1  UNL1        0.0622
     97 H          15.7052   -0.9415    0.0000 H       1  UNL1        0.0622
     98 H          11.3781    0.9415    0.0000 H       1  UNL1        0.0622
     99 H           9.9326   -1.3285    0.0000 H       1  UNL1        0.0724
    100 H          10.7297   -1.3285    0.0000 H       1  UNL1        0.0724
    101 H          17.1506    1.3285    0.0000 H       1  UNL1        0.0724
    102 H          16.3535    1.3285    0.0000 H       1  UNL1        0.0724
    103 H          14.0852   -3.7474    0.0000 H       1  UNL1        0.0654
    104 H          12.9981    3.7474    0.0000 H       1  UNL1        0.0654
    105 H          16.5152   -2.3444    0.0000 H       1  UNL1        0.0654
    106 H          10.5681    2.3444    0.0000 H       1  UNL1        0.0654
    107 H           9.4651   -0.9736    0.0000 H       1  UNL1        0.0658
    108 H          17.6181    0.9736    0.0000 H       1  UNL1        0.0658
    109 H          10.0021    0.3364    0.0000 H       1  UNL1        0.0647
    110 H          17.0812   -0.3364    0.0000 H       1  UNL1        0.0647
    111 H           8.0622    1.4564    0.0000 H       1  UNL1        0.0648
    112 H          17.9472   -1.4564    0.0000 H       1  UNL1        0.0648
    113 H          19.3501   -1.2664    0.0000 H       1  UNL1        0.0683
    114 H           7.1962    0.3364    0.0000 H       1  UNL1        0.0683
    115 H          19.3501    0.9736    0.0000 H       1  UNL1        0.1084
    116 H           7.7331   -0.9736    0.0000 H       1  UNL1        0.1084
    117 H          15.5852   -4.6134    0.0000 H       1  UNL1        0.2921
    118 H          10.5681    4.0765    0.0000 H       1  UNL1        0.2921
    119 H          16.7521   -1.7664    0.0000 H       1  UNL1        0.2100
    120 H          10.3312    1.7664    0.0000 H       1  UNL1        0.2100
    121 H          17.9472   -2.4564    0.0000 H       1  UNL1        0.2100
    122 H           9.1360    2.4564    0.0000 H       1  UNL1        0.2100
    123 H          20.2162   -1.7664    0.0000 H       1  UNL1        0.2102
    124 H           6.8671    1.7664    0.0000 H       1  UNL1        0.2102
    125 H           6.3105   -5.1988    0.0000 H       1  UNL1        0.0692
    126 H          20.7727    5.1988    0.0000 H       1  UNL1        0.0692
    127 H          22.8142    2.9736    0.0000 H       1  UNL1        0.0626
    128 H           4.2690   -2.9736    0.0000 H       1  UNL1        0.0626
    129 H          21.4113    0.5436    0.0000 H       1  UNL1        0.0626
    130 H           5.6720   -0.5436    0.0000 H       1  UNL1        0.0626
    131 H           2.8660   -2.1636    0.0000 H       1  UNL1        0.0654
    132 H          24.2172    2.1636    0.0000 H       1  UNL1        0.0654
    133 H           4.2690    0.2664    0.0000 H       1  UNL1        0.0654
    134 H          22.8142   -0.2664    0.0000 H       1  UNL1        0.0654
    135 H          17.0395    3.6542    0.0000 H       1  UNL1        0.2923
    136 H          10.0438   -3.6542    0.0000 H       1  UNL1        0.2923
    137 H          19.8762    6.7307    0.0000 H       1  UNL1        0.2923
    138 H           7.2071   -6.7307    0.0000 H       1  UNL1        0.2923
    139 H           8.9029   -6.4010    0.0000 H       1  UNL1        0.0660
    140 H           9.5253   -7.0186    0.0000 H       1  UNL1        0.0660
    141 H          10.1429   -6.3963    0.0000 H       1  UNL1        0.0660
    142 H          18.1803    6.4010    0.0000 H       1  UNL1        0.0660
    143 H          17.5579    7.0186    0.0000 H       1  UNL1        0.0660
    144 H          16.9403    6.3963    0.0000 H       1  UNL1        0.0660
    145 H          24.5463   -0.2664    0.0000 H       1  UNL1        0.2921
    146 H           2.0000   -0.6636    0.0000 H       1  UNL1        0.2921
@<TRIPOS>BOND
     1     1    36    1
     2     1    42    1
     3     2    35    1
     4     2    41    1
     5     3    35    2
     6     4    36    2
     7     5    47    1
     8     5    57    1
     9     6    48    1
    10     6    58    1
    11     7    50    1
    12     7   118    1
    13     8    49    1
    14     8   117    1
    15    51     9    1
    16     9   119    1
    17    52    10    1
    18    10   120    1
    19    53    11    1
    20    11   121    1
    21    54    12    1
    22    12   122    1
    23    57    13    1
    24    13    60    1
    25    58    14    1
    26    14    59    1
    27    56    15    1
    28    15   124    1
    29    55    16    1
    30    16   123    1
    31    17    61   ar
    32    17    70   ar
    33    18    62   ar
    34    18    69   ar
    35    19    63    2
    36    20    64    2
    37    21    72    1
    38    21   136    1
    39    22    71    1
    40    22   135    1
    41    23    79    1
    42    23    90    1
    43    24    80    1
    44    24    89    1
    45    25    82    1
    46    25   138    1
    47    26    81    1
    48    26   137    1
    49    27    87    1
    50    27   146    1
    51    28    88    1
    52    28   145    1
    53    29    31    1
    54    29    32    1
    55    29    34    1
    56    29    91    1
    57    30    31    1
    58    30    32    1
    59    30    33    1
    60    30    92    1
    61    31    35    1
    62    31    93    1
    63    32    36    1
    64    32    94    1
    65    33    38   ar
    66    33    40   ar
    67    34    37   ar
    68    34    39   ar
    69    37    43   ar
    70    37    96    1
    71    38    44   ar
    72    38    95    1
    73    39    45   ar
    74    39    98    1
    75    40    46   ar
    76    40    97    1
    77    48    41    1
    78    41    99    1
    79    41   100    1
    80    47    42    1
    81    42   101    1
    82    42   102    1
    83    43    50   ar
    84    43   104    1
    85    44    49   ar
    86    44   103    1
    87    45    50   ar
    88    45   106    1
    89    46    49   ar
    90    46   105    1
    91    47    51    1
    92    47   108    1
    93    48    52    1
    94    48   107    1
    95    51    53    1
    96    51   110    1
    97    52    54    1
    98    52   109    1
    99    53    55    1
   100    53   112    1
   101    54    56    1
   102    54   111    1
   103    55    57    1
   104    55   113    1
   105    56    58    1
   106    56   114    1
   107    57   115    1
   108    58   116    1
   109    59    61   ar
   110    59    63   ar
   111    60    62   ar
   112    60    64   ar
   113    61    68    1
   114    62    67    1
   115    63    65   ar
   116    64    66   ar
   117    65    70   ar
   118    65    72   ar
   119    66    69   ar
   120    66    71   ar
   121    67    75   ar
   122    67    77   ar
   123    68    76   ar
   124    68    78   ar
   125    69    73   ar
   126    70    74   ar
   127    71    79   ar
   128    72    80   ar
   129    73    81   ar
   130    73   126    1
   131    74    82   ar
   132    74   125    1
   133    75    83   ar
   134    75   127    1
   135    76    84   ar
   136    76   128    1
   137    77    85   ar
   138    77   129    1
   139    78    86   ar
   140    78   130    1
   141    79    81   ar
   142    80    82   ar
   143    83    88   ar
   144    83   132    1
   145    84    87   ar
   146    84   131    1
   147    85    88   ar
   148    85   134    1
   149    86    87   ar
   150    86   133    1
   151    89   139    1
   152    89   140    1
   153    89   141    1
   154    90   142    1
   155    90   143    1
   156    90   144    1
