@<TRIPOS>MOLECULE
IMPHY002061
 81 85 0 0 0
SMALL
GASTEIGER

@<TRIPOS>ATOM
      1 O           2.5357   -2.5933    0.0000 O.3     1  UNL1       -0.3912
      2 C           7.0628   -1.0410    0.0000 C.3     1  UNL1       -0.0228
      3 C           6.1968   -0.5410    0.0000 C.3     1  UNL1       -0.0294
      4 C           7.9288   -0.5410    0.0000 C.3     1  UNL1       -0.0199
      5 C           5.2868   -1.0478    0.0000 C.3     1  UNL1       -0.0252
      6 C           5.2787   -2.0894    0.0000 C.3     1  UNL1       -0.0278
      7 C           7.9288    0.4590    0.0000 C.3     1  UNL1       -0.0135
      8 C           7.0789   -2.0825    0.0000 C.3     1  UNL1       -0.0466
      9 C           6.1968    0.4590    0.0000 C.3     1  UNL1       -0.0486
     10 C           6.1808   -2.6102    0.0000 C.3     1  UNL1       -0.0486
     11 C           4.3433   -2.6391    0.0000 C.3     1  UNL1       -0.0056
     12 C           7.0628    0.9590    0.0000 C.3     1  UNL1       -0.0457
     13 C           8.8228   -1.0756    0.0000 C.3     1  UNL1       -0.0458
     14 C           4.3599   -0.4837    0.0000 C.3     1  UNL1       -0.0447
     15 C           8.8228    0.9937    0.0000 C.2     1  UNL1       -0.0634
     16 C           9.7288    0.4799    0.0000 C.3     1  UNL1       -0.0107
     17 C           7.7056   -1.8070    0.0000 C.3     1  UNL1       -0.0588
     18 C           9.7288   -0.5618    0.0000 C.3     1  UNL1       -0.0434
     19 C           8.2709   -1.4806    0.0000 C.3     1  UNL1       -0.0585
     20 C           5.2945   -0.0478    0.0000 C.3     1  UNL1       -0.0590
     21 C           3.4037   -2.0966    0.0000 C.3     1  UNL1        0.0606
     22 C           3.4120   -1.0117    0.0000 C.3     1  UNL1       -0.0258
     23 C          10.6726    1.0151    0.0000 C.3     1  UNL1       -0.0431
     24 C           3.8467   -3.5071    0.0000 C.3     1  UNL1       -0.0572
     25 C           4.8466   -3.5032    0.0000 C.3     1  UNL1       -0.0572
     26 C           8.7977    2.0784    0.0000 C.2     1  UNL1       -0.0783
     27 C           9.7288    2.6353    0.0000 C.3     1  UNL1       -0.0166
     28 C          10.5987   -0.0135    0.0000 C.3     1  UNL1       -0.0558
     29 C          10.6726    2.1001    0.0000 C.3     1  UNL1       -0.0436
     30 C          10.2188    3.5071    0.0000 C.3     1  UNL1       -0.0563
     31 C           9.2188    3.4955    0.0000 C.3     1  UNL1       -0.0563
     32 H           6.9329   -0.1160    0.0000 H       1  UNL1        0.0312
     33 H           5.2820   -2.9394    0.0000 H       1  UNL1        0.0312
     34 H           7.9223    1.3090    0.0000 H       1  UNL1        0.0351
     35 H           7.2969   -2.6629    0.0000 H       1  UNL1        0.0271
     36 H           7.6880   -1.9670    0.0000 H       1  UNL1        0.0271
     37 H           5.9847    1.0416    0.0000 H       1  UNL1        0.0268
     38 H           5.5862    0.3514    0.0000 H       1  UNL1        0.0268
     39 H           5.7835   -3.0862    0.0000 H       1  UNL1        0.0268
     40 H           6.5818   -3.0831    0.0000 H       1  UNL1        0.0268
     41 H           7.4613    1.4340    0.0000 H       1  UNL1        0.0271
     42 H           6.6643    1.4340    0.0000 H       1  UNL1        0.0271
     43 H           8.4182   -1.5454    0.0000 H       1  UNL1        0.0271
     44 H           9.2164   -1.5546    0.0000 H       1  UNL1        0.0271
     45 H           4.7681   -0.0171    0.0000 H       1  UNL1        0.0271
     46 H           3.9700   -0.0017    0.0000 H       1  UNL1        0.0271
     47 H           7.2306   -2.2055    0.0000 H       1  UNL1        0.0235
     48 H           8.1041   -2.2820    0.0000 H       1  UNL1        0.0235
     49 H           8.1805   -1.4085    0.0000 H       1  UNL1        0.0235
     50 H           9.9379   -1.1455    0.0000 H       1  UNL1        0.0274
     51 H          10.3397   -0.4557    0.0000 H       1  UNL1        0.0274
     52 H           7.6884   -1.6927    0.0000 H       1  UNL1        0.0235
     53 H           8.4830   -2.0632    0.0000 H       1  UNL1        0.0235
     54 H           8.8535   -1.2685    0.0000 H       1  UNL1        0.0235
     55 H           5.9145   -0.0526    0.0000 H       1  UNL1        0.0235
     56 H           5.2993    0.5721    0.0000 H       1  UNL1        0.0235
     57 H           4.6745   -0.0431    0.0000 H       1  UNL1        0.0235
     58 H           3.4025   -2.7166    0.0000 H       1  UNL1        0.0599
     59 H           3.2075   -0.4264    0.0000 H       1  UNL1        0.0290
     60 H           2.8004   -1.1131    0.0000 H       1  UNL1        0.0290
     61 H          10.8817    0.4314    0.0000 H       1  UNL1        0.0274
     62 H          11.2835    1.1212    0.0000 H       1  UNL1        0.0274
     63 H           4.3109   -3.8153    0.0000 H       1  UNL1        0.0236
     64 H           5.1587   -4.0390    0.0000 H       1  UNL1        0.0236
     65 H           5.3824   -3.1912    0.0000 H       1  UNL1        0.0236
     66 H           3.3085   -3.1992    0.0000 H       1  UNL1        0.0236
     67 H           3.5387   -4.0452    0.0000 H       1  UNL1        0.0236
     68 H           4.3848   -3.8150    0.0000 H       1  UNL1        0.0236
     69 H           8.2549    2.3780    0.0000 H       1  UNL1        0.0577
     70 H          10.2928   -0.5528    0.0000 H       1  UNL1        0.0238
     71 H          11.1380   -0.3193    0.0000 H       1  UNL1        0.0238
     72 H          10.9045    0.5259    0.0000 H       1  UNL1        0.0238
     73 H          11.2835    1.9940    0.0000 H       1  UNL1        0.0274
     74 H          10.8817    2.6838    0.0000 H       1  UNL1        0.0274
     75 H           2.0000   -2.2812    0.0000 H       1  UNL1        0.2098
     76 H           9.7522    3.8117    0.0000 H       1  UNL1        0.0238
     77 H           8.9027    4.0288    0.0000 H       1  UNL1        0.0238
     78 H           8.6855    3.1793    0.0000 H       1  UNL1        0.0238
     79 H          10.7593    3.2033    0.0000 H       1  UNL1        0.0238
     80 H          10.5226    4.0476    0.0000 H       1  UNL1        0.0238
     81 H           9.6783    3.8108    0.0000 H       1  UNL1        0.0238
@<TRIPOS>BOND
     1    21     1    1
     2     1    75    1
     3     2     3    1
     4     2     4    1
     5     2     8    1
     6     2    17    1
     7     3     5    1
     8     3     9    1
     9     3    32    1
    10     4     7    1
    11     4    13    1
    12     4    19    1
    13     5     6    1
    14     5    14    1
    15     5    20    1
    16     6    10    1
    17     6    11    1
    18     6    33    1
    19     7    12    1
    20     7    15    1
    21     7    34    1
    22     8    10    1
    23     8    35    1
    24     8    36    1
    25     9    12    1
    26     9    37    1
    27     9    38    1
    28    10    39    1
    29    10    40    1
    30    11    21    1
    31    11    24    1
    32    11    25    1
    33    12    41    1
    34    12    42    1
    35    13    18    1
    36    13    43    1
    37    13    44    1
    38    14    22    1
    39    14    45    1
    40    14    46    1
    41    15    16    1
    42    15    26    2
    43    16    18    1
    44    16    23    1
    45    16    28    1
    46    17    47    1
    47    17    48    1
    48    17    49    1
    49    18    50    1
    50    18    51    1
    51    19    52    1
    52    19    53    1
    53    19    54    1
    54    20    55    1
    55    20    56    1
    56    20    57    1
    57    21    22    1
    58    21    58    1
    59    22    59    1
    60    22    60    1
    61    23    29    1
    62    23    61    1
    63    23    62    1
    64    24    66    1
    65    24    67    1
    66    24    68    1
    67    25    63    1
    68    25    64    1
    69    25    65    1
    70    26    27    1
    71    26    69    1
    72    27    29    1
    73    27    30    1
    74    27    31    1
    75    28    70    1
    76    28    71    1
    77    28    72    1
    78    29    73    1
    79    29    74    1
    80    30    79    1
    81    30    80    1
    82    30    81    1
    83    31    76    1
    84    31    77    1
    85    31    78    1
