@<TRIPOS>MOLECULE
IMPHY005201
 28 29 0 0 0
SMALL
GASTEIGER

@<TRIPOS>ATOM
      1 O           5.5321   -0.6754    0.0000 O.2     1  UNL1       -0.4223
      2 O           2.9176    1.8592    0.0000 O.3     1  UNL1       -0.5062
      3 O           4.6660   -2.1754    0.0000 O.2     1  UNL1       -0.2445
      4 C           3.8000    0.3246    0.0000 C.ar    1  UNL1        0.0339
      5 C           3.8000   -0.6754    0.0000 C.ar    1  UNL1        0.0701
      6 C           4.6660    0.8246    0.0000 C.ar    1  UNL1       -0.0078
      7 C           5.5321    0.3246    0.0000 C.ar    1  UNL1        0.1324
      8 C           2.9061    0.8593    0.0000 C.ar    1  UNL1        0.1249
      9 C           2.9061   -1.2100    0.0000 C.ar    1  UNL1       -0.0470
     10 C           4.6660   -1.1754    0.0000 C.ar    1  UNL1        0.3451
     11 C           6.3981    0.8246    0.0000 C.2     1  UNL1       -0.0231
     12 C           2.0000    0.3454    0.0000 C.ar    1  UNL1       -0.0195
     13 C           2.0000   -0.6962    0.0000 C.ar    1  UNL1       -0.0575
     14 C           8.1301    0.8246    0.0000 C.3     1  UNL1       -0.0372
     15 C           7.2641    0.3246    0.0000 C.2     1  UNL1       -0.0808
     16 C           8.9962    0.3246    0.0000 C.3     1  UNL1       -0.0618
     17 H           4.6660    1.4446    0.0000 H       1  UNL1        0.0661
     18 H           2.9132   -1.8300    0.0000 H       1  UNL1        0.0626
     19 H           6.3981    1.4446    0.0000 H       1  UNL1        0.0651
     20 H           1.4643    0.6575    0.0000 H       1  UNL1        0.0654
     21 H           1.4643   -1.0083    0.0000 H       1  UNL1        0.0619
     22 H           8.5287    1.2996    0.0000 H       1  UNL1        0.0305
     23 H           7.7316    1.2996    0.0000 H       1  UNL1        0.0305
     24 H           7.2641   -0.2954    0.0000 H       1  UNL1        0.0573
     25 H           8.6862   -0.2123    0.0000 H       1  UNL1        0.0233
     26 H           9.5331    0.0146    0.0000 H       1  UNL1        0.0233
     27 H           9.3062    0.8615    0.0000 H       1  UNL1        0.0233
     28 H           2.3843    2.1754    0.0000 H       1  UNL1        0.2922
@<TRIPOS>BOND
     1     1     7   ar
     2     1    10   ar
     3     2     8    1
     4     2    28    1
     5     3    10    2
     6     4     5   ar
     7     4     6   ar
     8     4     8   ar
     9     5     9   ar
    10     5    10   ar
    11     6     7   ar
    12     6    17    1
    13     7    11    1
    14     8    12   ar
    15     9    13   ar
    16     9    18    1
    17    11    15    2
    18    11    19    1
    19    12    13   ar
    20    12    20    1
    21    13    21    1
    22    14    15    1
    23    14    16    1
    24    14    22    1
    25    14    23    1
    26    15    24    1
    27    16    25    1
    28    16    26    1
    29    16    27    1
