@<TRIPOS>MOLECULE
IMPHY010119
 35 37 0 0 0
SMALL
GASTEIGER

@<TRIPOS>ATOM
      1 O           6.0682   -0.2500    0.0000 O.3     1  UNL1       -0.4811
      2 O           7.8003    1.7500    0.0000 O.3     1  UNL1       -0.3849
      3 O           6.0682    2.7500    0.0000 O.3     1  UNL1       -0.3843
      4 O           2.5381   -0.2742    0.0000 O.3     1  UNL1       -0.5066
      5 O           8.6663   -2.7500    0.0000 O.3     1  UNL1       -0.5033
      6 O          10.3984   -1.7500    0.0000 O.3     1  UNL1       -0.5033
      7 C           6.9343    1.2500    0.0000 C.3     1  UNL1        0.1261
      8 C           6.9343    0.2500    0.0000 C.3     1  UNL1        0.1537
      9 C           6.0682    1.7500    0.0000 C.3     1  UNL1        0.1132
     10 C           5.2022    1.2500    0.0000 C.ar    1  UNL1        0.0254
     11 C           5.2022    0.2500    0.0000 C.ar    1  UNL1        0.1307
     12 C           7.8003   -0.2500    0.0000 C.ar    1  UNL1       -0.0011
     13 C           4.3083    1.7847    0.0000 C.ar    1  UNL1       -0.0491
     14 C           4.3083   -0.2847    0.0000 C.ar    1  UNL1        0.0219
     15 C           7.8003   -1.2500    0.0000 C.ar    1  UNL1       -0.0098
     16 C           8.6663    0.2500    0.0000 C.ar    1  UNL1       -0.0513
     17 C           3.4022    1.2708    0.0000 C.ar    1  UNL1       -0.0196
     18 C           3.4022    0.2292    0.0000 C.ar    1  UNL1        0.1204
     19 C           8.6663   -1.7500    0.0000 C.ar    1  UNL1        0.1586
     20 C           9.5323   -0.2500    0.0000 C.ar    1  UNL1       -0.0162
     21 C           9.5323   -1.2500    0.0000 C.ar    1  UNL1        0.1582
     22 H           6.9343    1.8700    0.0000 H       1  UNL1        0.0663
     23 H           6.9343   -0.3700    0.0000 H       1  UNL1        0.0812
     24 H           5.5313    2.0600    0.0000 H       1  UNL1        0.0672
     25 H           4.3154    2.4046    0.0000 H       1  UNL1        0.0623
     26 H           4.3154   -0.9046    0.0000 H       1  UNL1        0.0691
     27 H           7.8003    2.3700    0.0000 H       1  UNL1        0.2101
     28 H           7.2634   -1.5600    0.0000 H       1  UNL1        0.0659
     29 H           8.6663    0.8700    0.0000 H       1  UNL1        0.0623
     30 H           5.5313    3.0600    0.0000 H       1  UNL1        0.2103
     31 H           2.8665    1.5829    0.0000 H       1  UNL1        0.0654
     32 H          10.0693    0.0600    0.0000 H       1  UNL1        0.0655
     33 H           2.0000    0.0338    0.0000 H       1  UNL1        0.2921
     34 H           9.2033   -3.0600    0.0000 H       1  UNL1        0.2923
     35 H          10.9353   -1.4400    0.0000 H       1  UNL1        0.2923
@<TRIPOS>BOND
     1     1     8    1
     2     1    11    1
     3     7     2    1
     4     2    27    1
     5     9     3    1
     6     3    30    1
     7     4    18    1
     8     4    33    1
     9     5    19    1
    10     5    34    1
    11     6    21    1
    12     6    35    1
    13     7     8    1
    14     7     9    1
    15     7    22    1
    16     8    12    1
    17     8    23    1
    18     9    10    1
    19     9    24    1
    20    10    11   ar
    21    10    13   ar
    22    11    14   ar
    23    12    15   ar
    24    12    16   ar
    25    13    17   ar
    26    13    25    1
    27    14    18   ar
    28    14    26    1
    29    15    19   ar
    30    15    28    1
    31    16    20   ar
    32    16    29    1
    33    17    18   ar
    34    17    31    1
    35    19    21   ar
    36    20    21   ar
    37    20    32    1
