@<TRIPOS>MOLECULE
IMPHY005520
 76 81 0 0 0
SMALL
GASTEIGER

@<TRIPOS>ATOM
      1 O           5.5954   -2.9096    0.0000 O.3     1  UNL1       -0.3448
      2 O           3.9300   -1.8284    0.0000 O.3     1  UNL1       -0.3480
      3 O           8.3882    2.4278    0.0000 O.3     1  UNL1       -0.3886
      4 O          10.1833    3.5014    0.0000 O.3     1  UNL1       -0.3867
      5 O          12.0027    2.4696    0.0000 O.3     1  UNL1       -0.3891
      6 C           6.6628   -0.6748    0.0000 C.3     1  UNL1       -0.0233
      7 C           7.5288   -1.1748    0.0000 C.3     1  UNL1       -0.0298
      8 C           8.3948   -0.6748    0.0000 C.3     1  UNL1       -0.0342
      9 C           5.9258   -1.3418    0.0000 C.3     1  UNL1       -0.0015
     10 C           8.3948    0.3252    0.0000 C.3     1  UNL1       -0.0298
     11 C           9.2888    0.8599    0.0000 C.3     1  UNL1        0.0024
     12 C           6.3309   -2.2496    0.0000 C.3     1  UNL1        0.0660
     13 C           7.3196   -2.1466    0.0000 C.3     1  UNL1       -0.0226
     14 C           6.6628    0.3252    0.0000 C.3     1  UNL1       -0.0467
     15 C           7.5288    0.8252    0.0000 C.3     1  UNL1       -0.0489
     16 C           4.9434   -1.4486    0.0000 C.3     1  UNL1        0.0160
     17 C          10.1949    0.3460    0.0000 C.3     1  UNL1       -0.0305
     18 C           9.2888   -1.2094    0.0000 C.3     1  UNL1       -0.0494
     19 C           4.7396   -2.4155    0.0000 C.3     1  UNL1        0.1732
     20 C          10.1949   -0.6956    0.0000 C.3     1  UNL1       -0.0493
     21 C           5.7968   -0.1748    0.0000 C.3     1  UNL1       -0.0590
     22 C           9.2637    1.9446    0.0000 C.3     1  UNL1        0.0893
     23 C          11.1386    0.8813    0.0000 C.3     1  UNL1       -0.0209
     24 C           8.4189    1.3532    0.0000 C.3     1  UNL1       -0.0566
     25 C          10.1949    2.5015    0.0000 C.3     1  UNL1        0.1073
     26 C          11.1386    1.9663    0.0000 C.3     1  UNL1        0.0838
     27 C           4.2723   -0.7071    0.0000 C.3     1  UNL1       -0.0572
     28 C           4.6359   -3.4101    0.0000 C.3     1  UNL1        0.0020
     29 C           3.7227   -3.8176    0.0000 C.3     1  UNL1       -0.0435
     30 C           3.0169   -2.2359    0.0000 C.3     1  UNL1        0.0535
     31 C           2.9132   -3.2306    0.0000 C.3     1  UNL1       -0.0201
     32 C           2.0000   -3.6381    0.0000 C.3     1  UNL1       -0.0603
     33 H           8.2158   -1.6753    0.0000 H       1  UNL1        0.0310
     34 H           8.3883   -1.5247    0.0000 H       1  UNL1        0.0306
     35 H           5.5777   -0.5664    0.0000 H       1  UNL1        0.0335
     36 H           9.1342   -0.0941    0.0000 H       1  UNL1        0.0310
     37 H           6.6756   -3.0266    0.0000 H       1  UNL1        0.0600
     38 H           7.3187   -2.7666    0.0000 H       1  UNL1        0.0293
     39 H           7.9361   -2.2126    0.0000 H       1  UNL1        0.0293
     40 H           6.4507    0.9078    0.0000 H       1  UNL1        0.0271
     41 H           6.0522    0.2176    0.0000 H       1  UNL1        0.0271
     42 H           7.9274    1.3002    0.0000 H       1  UNL1        0.0268
     43 H           7.1303    1.3002    0.0000 H       1  UNL1        0.0268
     44 H           4.3448   -1.6103    0.0000 H       1  UNL1        0.0354
     45 H          10.9293   -0.0818    0.0000 H       1  UNL1        0.0308
     46 H           8.8842   -1.6792    0.0000 H       1  UNL1        0.0268
     47 H           9.6824   -1.6884    0.0000 H       1  UNL1        0.0268
     48 H          10.4039   -1.2793    0.0000 H       1  UNL1        0.0268
     49 H          10.8057   -0.5895    0.0000 H       1  UNL1        0.0268
     50 H           6.1068    0.3622    0.0000 H       1  UNL1        0.0235
     51 H           5.2598    0.1352    0.0000 H       1  UNL1        0.0235
     52 H           5.4868   -0.7117    0.0000 H       1  UNL1        0.0235
     53 H           9.2529    2.5645    0.0000 H       1  UNL1        0.0625
     54 H          11.3477    0.2976    0.0000 H       1  UNL1        0.0294
     55 H          11.7495    0.9874    0.0000 H       1  UNL1        0.0294
     56 H           8.7248    1.8925    0.0000 H       1  UNL1        0.0236
     57 H           7.8796    1.6590    0.0000 H       1  UNL1        0.0236
     58 H           8.1131    0.8139    0.0000 H       1  UNL1        0.0236
     59 H           9.6538    2.8042    0.0000 H       1  UNL1        0.0645
     60 H          11.1351    2.5863    0.0000 H       1  UNL1        0.0620
     61 H           4.7320   -0.2911    0.0000 H       1  UNL1        0.0234
     62 H           3.8562   -0.2475    0.0000 H       1  UNL1        0.0234
     63 H           3.8126   -1.1232    0.0000 H       1  UNL1        0.0234
     64 H           4.7864   -4.0116    0.0000 H       1  UNL1        0.0317
     65 H           5.2544   -3.3663    0.0000 H       1  UNL1        0.0317
     66 H           3.2771   -4.2487    0.0000 H       1  UNL1        0.0270
     67 H           4.0699   -4.3313    0.0000 H       1  UNL1        0.0270
     68 H           8.3762    3.0477    0.0000 H       1  UNL1        0.2099
     69 H           2.8664   -1.6345    0.0000 H       1  UNL1        0.0563
     70 H           2.3984   -2.2797    0.0000 H       1  UNL1        0.0563
     71 H           2.4113   -2.8666    0.0000 H       1  UNL1        0.0320
     72 H          10.7166    3.8176    0.0000 H       1  UNL1        0.2100
     73 H          12.5409    2.1617    0.0000 H       1  UNL1        0.2099
     74 H           1.7473   -3.0719    0.0000 H       1  UNL1        0.0233
     75 H           1.4338   -3.8908    0.0000 H       1  UNL1        0.0233
     76 H           2.2527   -4.2043    0.0000 H       1  UNL1        0.0233
@<TRIPOS>BOND
     1     1    12    1
     2    19     1    1
     3     2    19    1
     4     2    30    1
     5    22     3    1
     6     3    68    1
     7    25     4    1
     8     4    72    1
     9    26     5    1
    10     5    73    1
    11     6     7    1
    12     6     9    1
    13     6    14    1
    14     6    21    1
    15     7     8    1
    16     7    13    1
    17     7    33    1
    18     8    10    1
    19     8    18    1
    20     8    34    1
    21     9    12    1
    22     9    16    1
    23     9    35    1
    24    10    11    1
    25    10    15    1
    26    10    36    1
    27    11    17    1
    28    11    22    1
    29    11    24    1
    30    12    13    1
    31    12    37    1
    32    13    38    1
    33    13    39    1
    34    14    15    1
    35    14    40    1
    36    14    41    1
    37    15    42    1
    38    15    43    1
    39    16    19    1
    40    16    27    1
    41    16    44    1
    42    17    20    1
    43    17    23    1
    44    17    45    1
    45    18    20    1
    46    18    46    1
    47    18    47    1
    48    19    28    1
    49    20    48    1
    50    20    49    1
    51    21    50    1
    52    21    51    1
    53    21    52    1
    54    22    25    1
    55    22    53    1
    56    23    26    1
    57    23    54    1
    58    23    55    1
    59    24    56    1
    60    24    57    1
    61    24    58    1
    62    25    26    1
    63    25    59    1
    64    26    60    1
    65    27    61    1
    66    27    62    1
    67    27    63    1
    68    28    29    1
    69    28    64    1
    70    28    65    1
    71    29    31    1
    72    29    66    1
    73    29    67    1
    74    30    31    1
    75    30    69    1
    76    30    70    1
    77    31    32    1
    78    31    71    1
    79    32    74    1
    80    32    75    1
    81    32    76    1
