@<TRIPOS>MOLECULE
IMPHY004260
 45 48 0 0 0
SMALL
GASTEIGER

@<TRIPOS>ATOM
      1 O           4.6497   -0.7328    0.0000 O.3     1  UNL1       -0.5031
      2 O           7.2762   -2.2675    0.0000 O.2     1  UNL1       -0.4916
      3 O           2.8680    0.2776    0.0000 O.3     1  UNL1       -0.4914
      4 O           9.0501   -1.2434    0.0000 O.2     1  UNL1       -0.2840
      5 N           6.8422    1.7927    0.0000 N.3     1  UNL1       -0.2983
      6 C           6.3981    0.3018    0.0000 C.3     1  UNL1        0.0453
      7 C           7.2641    1.8018    0.0000 C.3     1  UNL1        0.0369
      8 C           7.2641    0.8018    0.0000 C.2     1  UNL1       -0.0340
      9 C           6.1950    0.6717    0.0000 C.3     1  UNL1       -0.0230
     10 C           5.5320    0.8018    0.0000 C.ar    1  UNL1        0.0151
     11 C           6.3981    2.3018    0.0000 C.3     1  UNL1       -0.0077
     12 C           6.1114    1.4673    0.0000 C.3     1  UNL1        0.0006
     13 C           5.5320    1.8018    0.0000 C.ar    1  UNL1       -0.0376
     14 C           6.3820   -0.7398    0.0000 C.2     1  UNL1       -0.0238
     15 C           8.1741    0.2949    0.0000 C.2     1  UNL1       -0.0094
     16 C           4.6381    0.2671    0.0000 C.ar    1  UNL1        0.1631
     17 C           7.0501    2.7708    0.0000 C.3     1  UNL1       -0.0122
     18 C           7.2800   -1.2675    0.0000 C.2     1  UNL1        0.1638
     19 C           4.6381    2.3364    0.0000 C.ar    1  UNL1       -0.0545
     20 C           8.1821   -0.7467    0.0000 C.2     1  UNL1        0.2200
     21 C           3.7320    0.7809    0.0000 C.ar    1  UNL1        0.1616
     22 C           3.7320    1.8226    0.0000 C.ar    1  UNL1       -0.0160
     23 C           8.1403   -2.7708    0.0000 C.3     1  UNL1        0.0790
     24 C           2.0000    0.7743    0.0000 C.3     1  UNL1        0.0790
     25 H           7.6891    2.5379    0.0000 H       1  UNL1        0.0512
     26 H           5.6002    0.8468    0.0000 H       1  UNL1        0.0292
     27 H           6.7867    0.8569    0.0000 H       1  UNL1        0.0292
     28 H           6.7966    2.7767    0.0000 H       1  UNL1        0.0332
     29 H           5.9995    2.7767    0.0000 H       1  UNL1        0.0332
     30 H           5.9198    2.0570    0.0000 H       1  UNL1        0.0427
     31 H           5.5049    1.3384    0.0000 H       1  UNL1        0.0427
     32 H           5.8415   -1.0435    0.0000 H       1  UNL1        0.0622
     33 H           8.7074    0.6111    0.0000 H       1  UNL1        0.0657
     34 H           7.6566    2.6419    0.0000 H       1  UNL1        0.0391
     35 H           7.1790    3.3773    0.0000 H       1  UNL1        0.0391
     36 H           6.4436    2.8997    0.0000 H       1  UNL1        0.0391
     37 H           4.6453    2.9564    0.0000 H       1  UNL1        0.0622
     38 H           3.1963    2.1346    0.0000 H       1  UNL1        0.0655
     39 H           4.1164   -1.0490    0.0000 H       1  UNL1        0.2923
     40 H           7.8282   -3.3066    0.0000 H       1  UNL1        0.0660
     41 H           8.6760   -3.0829    0.0000 H       1  UNL1        0.0660
     42 H           8.4523   -2.2351    0.0000 H       1  UNL1        0.0660
     43 H           2.3079    1.3124    0.0000 H       1  UNL1        0.0660
     44 H           1.4619    1.0822    0.0000 H       1  UNL1        0.0660
     45 H           1.6921    0.2361    0.0000 H       1  UNL1        0.0660
@<TRIPOS>BOND
     1     1    16    1
     2     1    39    1
     3     2    18    1
     4     2    23    1
     5     3    21    1
     6     3    24    1
     7     4    20    2
     8     5     7    1
     9     5    12    1
    10     5    17    1
    11     6     8    1
    12     6     9    1
    13     6    10    1
    14     6    14    1
    15     7     8    1
    16     7    11    1
    17     7    25    1
    18     8    15    2
    19     9    12    1
    20     9    26    1
    21     9    27    1
    22    10    13   ar
    23    10    16   ar
    24    11    13    1
    25    11    28    1
    26    11    29    1
    27    12    30    1
    28    12    31    1
    29    13    19   ar
    30    14    18    2
    31    14    32    1
    32    15    20    1
    33    15    33    1
    34    16    21   ar
    35    17    34    1
    36    17    35    1
    37    17    36    1
    38    18    20    1
    39    19    22   ar
    40    19    37    1
    41    21    22   ar
    42    22    38    1
    43    23    40    1
    44    23    41    1
    45    23    42    1
    46    24    43    1
    47    24    44    1
    48    24    45    1
