@<TRIPOS>MOLECULE
IMPHY001290
 89 95 0 0 0
SMALL
GASTEIGER

@<TRIPOS>ATOM
      1 O           7.8521   -1.4688    0.0000 O.3     1  UNL1       -0.3719
      2 O           8.1002    0.8096    0.0000 O.3     1  UNL1       -0.4544
      3 O           3.7319   -0.6873    0.0000 O.3     1  UNL1       -0.4608
      4 O           5.4900   -3.7597    0.0000 O.3     1  UNL1       -0.4608
      5 O           4.8598    2.4220    0.0000 O.3     1  UNL1       -0.4568
      6 O           3.3178    1.7641    0.0000 O.2     1  UNL1       -0.2508
      7 O           8.9662   -0.6904    0.0000 O.2     1  UNL1       -0.2449
      8 O           2.8486   -2.1772    0.0000 O.2     1  UNL1       -0.2512
      9 O           3.7580   -3.7664    0.0000 O.2     1  UNL1       -0.2512
     10 O           8.7811    5.2630    0.0000 O.2     1  UNL1       -0.4707
     11 C           5.5021   -0.6904    0.0000 C.3     1  UNL1        0.0153
     12 C           6.3682   -1.1904    0.0000 C.3     1  UNL1        0.0087
     13 C           6.3842   -2.2319    0.0000 C.3     1  UNL1        0.0343
     14 C           5.5021    0.3096    0.0000 C.3     1  UNL1       -0.0092
     15 C           6.3682    0.8096    0.0000 C.3     1  UNL1        0.0360
     16 C           7.2342   -0.6904    0.0000 C.3     1  UNL1        0.1005
     17 C           7.2342    0.3096    0.0000 C.3     1  UNL1        0.1390
     18 C           4.5921   -1.1973    0.0000 C.3     1  UNL1        0.1124
     19 C           5.4862   -2.7597    0.0000 C.3     1  UNL1        0.1142
     20 C           7.3722   -2.3391    0.0000 C.3     1  UNL1        0.0573
     21 C           4.5841   -2.2389    0.0000 C.3     1  UNL1        0.0227
     22 C           4.6361   -0.1904    0.0000 C.3     1  UNL1       -0.0555
     23 C           6.5078    1.7804    0.0000 C.2     1  UNL1       -0.0202
     24 C           4.5916    0.6740    0.0000 C.3     1  UNL1        0.0493
     25 C           6.8942   -3.0921    0.0000 C.3     1  UNL1       -0.0537
     26 C           7.2342    1.3096    0.0000 C.3     1  UNL1       -0.0519
     27 C           5.8378    2.4966    0.0000 C.3     1  UNL1        0.1259
     28 C           7.3897    2.1961    0.0000 C.2     1  UNL1       -0.0617
     29 C           6.3114    3.3489    0.0000 C.3     1  UNL1       -0.0011
     30 C           4.3062    1.6124    0.0000 C.2     1  UNL1        0.3080
     31 C           7.2686    3.1635    0.0000 C.3     1  UNL1        0.0119
     32 C           8.2659    1.7141    0.0000 C.3     1  UNL1       -0.0428
     33 C           8.9662    0.3096    0.0000 C.2     1  UNL1        0.3396
     34 C           2.8602   -1.1772    0.0000 C.2     1  UNL1        0.3042
     35 C           7.9989    3.8466    0.0000 C.ar    1  UNL1       -0.0025
     36 C           4.6259   -4.2630    0.0000 C.2     1  UNL1        0.3042
     37 C           2.0000   -0.6673    0.0000 C.3     1  UNL1        0.0332
     38 C           9.8322    0.8096    0.0000 C.ar    1  UNL1        0.0590
     39 C           8.9808    3.6573    0.0000 C.ar    1  UNL1       -0.0202
     40 C           7.8755    4.8390    0.0000 C.ar    1  UNL1        0.0954
     41 C           4.6298   -5.2630    0.0000 C.3     1  UNL1        0.0332
     42 C           9.4642    4.5327    0.0000 C.ar    1  UNL1        0.0920
     43 C          10.6983    0.3096    0.0000 C.ar    1  UNL1       -0.0478
     44 C           9.8322    1.8096    0.0000 C.ar    1  UNL1       -0.0478
     45 C          11.5643    0.8096    0.0000 C.ar    1  UNL1       -0.0610
     46 C          10.6983    2.3096    0.0000 C.ar    1  UNL1       -0.0610
     47 C          11.5643    1.8096    0.0000 C.ar    1  UNL1       -0.0617
     48 H           5.6320   -1.6154    0.0000 H       1  UNL1        0.0341
     49 H           6.2382   -0.1154    0.0000 H       1  UNL1        0.0322
     50 H           8.0368   -0.4106    0.0000 H       1  UNL1        0.0636
     51 H           7.7711   -0.0004    0.0000 H       1  UNL1        0.0769
     52 H           4.0522   -1.5021    0.0000 H       1  UNL1        0.0741
     53 H           6.0249   -3.0666    0.0000 H       1  UNL1        0.0741
     54 H           7.2249   -2.9413    0.0000 H       1  UNL1        0.0567
     55 H           7.9498   -2.5644    0.0000 H       1  UNL1        0.0567
     56 H           3.9741   -2.1281    0.0000 H       1  UNL1        0.0337
     57 H           4.3705   -2.8209    0.0000 H       1  UNL1        0.0337
     58 H           4.9461    0.3465    0.0000 H       1  UNL1        0.0236
     59 H           4.0992    0.1196    0.0000 H       1  UNL1        0.0236
     60 H           4.3261   -0.7274    0.0000 H       1  UNL1        0.0236
     61 H           3.9731    0.6308    0.0000 H       1  UNL1        0.0381
     62 H           4.4956    0.0615    0.0000 H       1  UNL1        0.0381
     63 H           6.3609   -3.4083    0.0000 H       1  UNL1        0.0237
     64 H           7.2104   -3.6254    0.0000 H       1  UNL1        0.0237
     65 H           7.4275   -2.7759    0.0000 H       1  UNL1        0.0237
     66 H           7.5442    0.7726    0.0000 H       1  UNL1        0.0239
     67 H           7.7711    1.6196    0.0000 H       1  UNL1        0.0239
     68 H           6.9242    1.8465    0.0000 H       1  UNL1        0.0239
     69 H           5.3792    3.2123    0.0000 H       1  UNL1        0.0782
     70 H           6.4926    3.9418    0.0000 H       1  UNL1        0.0313
     71 H           5.7408    3.5914    0.0000 H       1  UNL1        0.0313
     72 H           7.8516    2.9526    0.0000 H       1  UNL1        0.0396
     73 H           7.9671    1.1709    0.0000 H       1  UNL1        0.0275
     74 H           8.8092    1.4153    0.0000 H       1  UNL1        0.0275
     75 H           8.5647    2.2574    0.0000 H       1  UNL1        0.0275
     76 H           2.3162   -0.1339    0.0000 H       1  UNL1        0.0342
     77 H           1.4667   -0.3511    0.0000 H       1  UNL1        0.0342
     78 H           1.6838   -1.2006    0.0000 H       1  UNL1        0.0342
     79 H           9.2437    3.0958    0.0000 H       1  UNL1        0.0652
     80 H           7.3327    5.1387    0.0000 H       1  UNL1        0.1032
     81 H           4.0098   -5.2654    0.0000 H       1  UNL1        0.0342
     82 H           4.6322   -5.8830    0.0000 H       1  UNL1        0.0342
     83 H           5.2498   -5.2606    0.0000 H       1  UNL1        0.0342
     84 H          10.0795    4.6092    0.0000 H       1  UNL1        0.1029
     85 H          10.6983   -0.3104    0.0000 H       1  UNL1        0.0626
     86 H           9.2953    2.1196    0.0000 H       1  UNL1        0.0626
     87 H          12.1012    0.4996    0.0000 H       1  UNL1        0.0618
     88 H          10.6983    2.9296    0.0000 H       1  UNL1        0.0618
     89 H          12.1012    2.1196    0.0000 H       1  UNL1        0.0618
@<TRIPOS>BOND
     1     1    16    1
     2     1    20    1
     3    17     2    1
     4     2    33    1
     5    18     3    1
     6     3    34    1
     7    19     4    1
     8     4    36    1
     9     5    27    1
    10     5    30    1
    11     6    30    2
    12     7    33    2
    13     8    34    2
    14     9    36    2
    15    10    40   ar
    16    10    42   ar
    17    11    12    1
    18    11    14    1
    19    11    18    1
    20    11    22    1
    21    12    13    1
    22    12    16    1
    23    12    48    1
    24    13    19    1
    25    13    20    1
    26    13    25    1
    27    14    15    1
    28    14    24    1
    29    14    49    1
    30    15    17    1
    31    15    23    1
    32    15    26    1
    33    16    17    1
    34    16    50    1
    35    17    51    1
    36    18    21    1
    37    18    52    1
    38    19    21    1
    39    19    53    1
    40    20    54    1
    41    20    55    1
    42    21    56    1
    43    21    57    1
    44    22    58    1
    45    22    59    1
    46    22    60    1
    47    23    27    1
    48    23    28    2
    49    24    30    1
    50    24    61    1
    51    24    62    1
    52    25    63    1
    53    25    64    1
    54    25    65    1
    55    26    66    1
    56    26    67    1
    57    26    68    1
    58    27    29    1
    59    27    69    1
    60    28    31    1
    61    28    32    1
    62    29    31    1
    63    29    70    1
    64    29    71    1
    65    31    35    1
    66    31    72    1
    67    32    73    1
    68    32    74    1
    69    32    75    1
    70    33    38    1
    71    34    37    1
    72    35    39   ar
    73    35    40   ar
    74    36    41    1
    75    37    76    1
    76    37    77    1
    77    37    78    1
    78    38    43   ar
    79    38    44   ar
    80    39    42   ar
    81    39    79    1
    82    40    80    1
    83    41    81    1
    84    41    82    1
    85    41    83    1
    86    42    84    1
    87    43    45   ar
    88    43    85    1
    89    44    46   ar
    90    44    86    1
    91    45    47   ar
    92    45    87    1
    93    46    47   ar
    94    46    88    1
    95    47    89    1
