@<TRIPOS>MOLECULE
IMPHY017728
 17 17 0 0 0
SMALL
GASTEIGER

@<TRIPOS>ATOM
      1 N           4.5981   -1.0000    0.0000 N.ar    1  UNL1       -0.2599
      2 C           2.8660   -1.0000    0.0000 C.3     1  UNL1       -0.0132
      3 C           3.7320   -0.5000    0.0000 C.ar    1  UNL1        0.0410
      4 C           2.0000   -0.5000    0.0000 C.3     1  UNL1       -0.0598
      5 C           3.7320    0.5000    0.0000 C.ar    1  UNL1       -0.0404
      6 C           4.5981    1.0000    0.0000 C.ar    1  UNL1       -0.0586
      7 C           5.4641    0.5000    0.0000 C.ar    1  UNL1       -0.0436
      8 C           5.4641   -0.5000    0.0000 C.ar    1  UNL1        0.0279
      9 H           2.4675   -1.4750    0.0000 H       1  UNL1        0.0326
     10 H           3.2646   -1.4750    0.0000 H       1  UNL1        0.0326
     11 H           2.3100    0.0369    0.0000 H       1  UNL1        0.0233
     12 H           1.4631   -0.1900    0.0000 H       1  UNL1        0.0233
     13 H           1.6900   -1.0369    0.0000 H       1  UNL1        0.0233
     14 H           3.1951    0.8100    0.0000 H       1  UNL1        0.0635
     15 H           4.5981    1.6200    0.0000 H       1  UNL1        0.0619
     16 H           6.0010    0.8100    0.0000 H       1  UNL1        0.0633
     17 H           6.0010   -0.8100    0.0000 H       1  UNL1        0.0829
@<TRIPOS>BOND
     1     1     3   ar
     2     1     8   ar
     3     2     3    1
     4     2     4    1
     5     2     9    1
     6     2    10    1
     7     3     5   ar
     8     4    11    1
     9     4    12    1
    10     4    13    1
    11     5     6   ar
    12     5    14    1
    13     6     7   ar
    14     6    15    1
    15     7     8   ar
    16     7    16    1
    17     8    17    1
