@<TRIPOS>MOLECULE
IMPHY017656
 33 32 0 0 0
SMALL
GASTEIGER

@<TRIPOS>ATOM
      1 O           6.3301    0.2500    0.0000 O.3     1  UNL1       -0.4614
      2 O           7.1962   -1.2500    0.0000 O.2     1  UNL1       -0.2453
      3 C           3.7320   -0.2500    0.0000 C.3     1  UNL1       -0.0411
      4 C           4.5981    0.2500    0.0000 C.3     1  UNL1       -0.0159
      5 C           2.8660    0.2500    0.0000 C.3     1  UNL1       -0.0532
      6 C           3.7320   -1.2500    0.0000 C.3     1  UNL1       -0.0623
      7 C           5.4641   -0.2500    0.0000 C.3     1  UNL1        0.0930
      8 C           2.0000   -0.2500    0.0000 C.3     1  UNL1       -0.0650
      9 C           7.1962   -0.2500    0.0000 C.2     1  UNL1        0.3346
     10 C           8.0622    0.2500    0.0000 C.2     1  UNL1        0.0293
     11 C           8.0622    1.2500    0.0000 C.3     1  UNL1       -0.0333
     12 C           8.9282   -0.2500    0.0000 C.2     1  UNL1       -0.0774
     13 C           8.9282   -1.2500    0.0000 C.3     1  UNL1       -0.0461
     14 H           4.4682   -0.6750    0.0000 H       1  UNL1        0.0299
     15 H           4.9966    0.7249    0.0000 H       1  UNL1        0.0301
     16 H           4.1996    0.7249    0.0000 H       1  UNL1        0.0301
     17 H           3.2646    0.7249    0.0000 H       1  UNL1        0.0265
     18 H           2.4675    0.7249    0.0000 H       1  UNL1        0.0265
     19 H           3.1120   -1.2500    0.0000 H       1  UNL1        0.0232
     20 H           3.7320   -1.8700    0.0000 H       1  UNL1        0.0232
     21 H           4.3520   -1.2500    0.0000 H       1  UNL1        0.0232
     22 H           5.0656   -0.7249    0.0000 H       1  UNL1        0.0697
     23 H           5.8626   -0.7249    0.0000 H       1  UNL1        0.0697
     24 H           1.6900    0.2869    0.0000 H       1  UNL1        0.0230
     25 H           1.4631   -0.5600    0.0000 H       1  UNL1        0.0230
     26 H           2.3100   -0.7869    0.0000 H       1  UNL1        0.0230
     27 H           8.6822    1.2500    0.0000 H       1  UNL1        0.0280
     28 H           8.0622    1.8700    0.0000 H       1  UNL1        0.0280
     29 H           7.4422    1.2500    0.0000 H       1  UNL1        0.0280
     30 H           9.4651    0.0600    0.0000 H       1  UNL1        0.0574
     31 H           8.3082   -1.2500    0.0000 H       1  UNL1        0.0272
     32 H           8.9282   -1.8700    0.0000 H       1  UNL1        0.0272
     33 H           9.5482   -1.2500    0.0000 H       1  UNL1        0.0272
@<TRIPOS>BOND
     1     1     7    1
     2     1     9    1
     3     2     9    2
     4     3     4    1
     5     3     5    1
     6     3     6    1
     7     3    14    1
     8     4     7    1
     9     4    15    1
    10     4    16    1
    11     5     8    1
    12     5    17    1
    13     5    18    1
    14     6    19    1
    15     6    20    1
    16     6    21    1
    17     7    22    1
    18     7    23    1
    19     8    24    1
    20     8    25    1
    21     8    26    1
    22     9    10    1
    23    10    11    1
    24    10    12    2
    25    11    27    1
    26    11    28    1
    27    11    29    1
    28    12    13    1
    29    12    30    1
    30    13    31    1
    31    13    32    1
    32    13    33    1
