@<TRIPOS>MOLECULE
IMPHY016096
 43 42 0 0 0
SMALL
GASTEIGER

@<TRIPOS>ATOM
      1 O           2.5369    3.3100    0.0000 O.2     1  UNL1       -0.3010
      2 C           4.2690    0.3100    0.0000 C.3     1  UNL1       -0.0524
      3 C           4.2690   -0.6900    0.0000 C.3     1  UNL1       -0.0496
      4 C           3.4030    0.8100    0.0000 C.3     1  UNL1       -0.0466
      5 C           5.1350   -1.1900    0.0000 C.3     1  UNL1       -0.0348
      6 C           3.4030    1.8100    0.0000 C.3     1  UNL1        0.0028
      7 C           5.1350   -2.1900    0.0000 C.2     1  UNL1       -0.0876
      8 C           6.0010   -2.6900    0.0000 C.2     1  UNL1       -0.0842
      9 C           6.8671   -2.1900    0.0000 C.3     1  UNL1       -0.0165
     10 C           2.5369    2.3100    0.0000 C.2     1  UNL1        0.1203
     11 C           7.7331   -2.6900    0.0000 C.2     1  UNL1       -0.0839
     12 C           8.5991   -1.1900    0.0000 C.3     1  UNL1       -0.0165
     13 C           8.5991   -2.1900    0.0000 C.2     1  UNL1       -0.0839
     14 C           9.4651   -0.6900    0.0000 C.2     1  UNL1       -0.0842
     15 C           8.5991    0.8100    0.0000 C.3     1  UNL1       -0.0376
     16 C           9.4651    0.3100    0.0000 C.2     1  UNL1       -0.0879
     17 C           8.5991    1.8100    0.0000 C.3     1  UNL1       -0.0618
     18 H           4.8796    0.2023    0.0000 H       1  UNL1        0.0265
     19 H           4.4810    0.8926    0.0000 H       1  UNL1        0.0265
     20 H           3.6584   -0.5823    0.0000 H       1  UNL1        0.0268
     21 H           4.0569   -1.2726    0.0000 H       1  UNL1        0.0268
     22 H           2.7924    0.9177    0.0000 H       1  UNL1        0.0269
     23 H           3.1909    0.2274    0.0000 H       1  UNL1        0.0269
     24 H           5.7456   -1.2977    0.0000 H       1  UNL1        0.0307
     25 H           5.3471   -0.6074    0.0000 H       1  UNL1        0.0307
     26 H           4.0135    1.7023    0.0000 H       1  UNL1        0.0339
     27 H           3.6150    2.3926    0.0000 H       1  UNL1        0.0339
     28 H           4.5981   -2.5000    0.0000 H       1  UNL1        0.0569
     29 H           6.0010   -3.3100    0.0000 H       1  UNL1        0.0572
     30 H           7.2656   -1.7150    0.0000 H       1  UNL1        0.0350
     31 H           6.4685   -1.7150    0.0000 H       1  UNL1        0.0350
     32 H           2.0000    2.0000    0.0000 H       1  UNL1        0.1026
     33 H           7.7331   -3.3100    0.0000 H       1  UNL1        0.0572
     34 H           8.3871   -0.6074    0.0000 H       1  UNL1        0.0350
     35 H           7.9885   -1.2977    0.0000 H       1  UNL1        0.0350
     36 H           9.1360   -2.5000    0.0000 H       1  UNL1        0.0572
     37 H          10.0021   -1.0000    0.0000 H       1  UNL1        0.0572
     38 H           7.9885    0.9177    0.0000 H       1  UNL1        0.0305
     39 H           8.3871    0.2274    0.0000 H       1  UNL1        0.0305
     40 H          10.0021    0.6200    0.0000 H       1  UNL1        0.0569
     41 H           9.2191    1.8100    0.0000 H       1  UNL1        0.0233
     42 H           8.5991    2.4300    0.0000 H       1  UNL1        0.0233
     43 H           7.9791    1.8100    0.0000 H       1  UNL1        0.0233
@<TRIPOS>BOND
     1     1    10    2
     2     2     3    1
     3     2     4    1
     4     2    18    1
     5     2    19    1
     6     3     5    1
     7     3    20    1
     8     3    21    1
     9     4     6    1
    10     4    22    1
    11     4    23    1
    12     5     7    1
    13     5    24    1
    14     5    25    1
    15     6    10    1
    16     6    26    1
    17     6    27    1
    18     7     8    2
    19     7    28    1
    20     8     9    1
    21     8    29    1
    22     9    11    1
    23     9    30    1
    24     9    31    1
    25    10    32    1
    26    11    13    2
    27    11    33    1
    28    12    13    1
    29    12    14    1
    30    12    34    1
    31    12    35    1
    32    13    36    1
    33    14    16    2
    34    14    37    1
    35    15    16    1
    36    15    17    1
    37    15    38    1
    38    15    39    1
    39    16    40    1
    40    17    41    1
    41    17    42    1
    42    17    43    1
