@<TRIPOS>MOLECULE
IMPHY013342
 62 65 0 0 0
SMALL
GASTEIGER

@<TRIPOS>ATOM
      1 O           8.5991   -2.7856    0.0000 O.3     1  UNL1       -0.3302
      2 O          10.3312   -2.7856    0.0000 O.3     1  UNL1       -0.4570
      3 O           6.8671   -4.7857    0.0000 O.3     1  UNL1       -0.3864
      4 O           8.5991   -5.7857    0.0000 O.3     1  UNL1       -0.3864
      5 O          10.3312   -4.7857    0.0000 O.3     1  UNL1       -0.3829
      6 O           6.0010   -3.2856    0.0000 O.3     1  UNL1       -0.4616
      7 O           8.5991   -1.7856    0.0000 O.3     1  UNL1       -0.4914
      8 O          12.1072    0.2212    0.0000 O.2     1  UNL1       -0.4620
      9 O           5.1350   -1.7856    0.0000 O.2     1  UNL1       -0.2502
     10 O           9.4434    1.7458    0.0000 O.2     1  UNL1       -0.2864
     11 O           2.5369   -3.2856    0.0000 O.3     1  UNL1       -0.4802
     12 O           3.4030   -1.7856    0.0000 O.2     1  UNL1       -0.2504
     13 O          11.1977    5.7836    0.0000 O.3     1  UNL1       -0.5068
     14 C           7.7331   -4.2857    0.0000 C.3     1  UNL1        0.1130
     15 C           8.5991   -4.7857    0.0000 C.3     1  UNL1        0.1152
     16 C           7.7331   -3.2856    0.0000 C.3     1  UNL1        0.1250
     17 C           9.4651   -4.2857    0.0000 C.3     1  UNL1        0.1454
     18 C           9.4651   -3.2856    0.0000 C.3     1  UNL1        0.2310
     19 C           6.8671   -2.7856    0.0000 C.3     1  UNL1        0.1212
     20 C          10.3312   -1.7856    0.0000 C.ar    1  UNL1        0.1689
     21 C           9.4651   -1.2856    0.0000 C.ar    1  UNL1        0.1625
     22 C          11.1972   -1.2856    0.0000 C.ar    1  UNL1        0.0268
     23 C          11.1972   -0.2856    0.0000 C.ar    1  UNL1        0.1421
     24 C           5.1350   -2.7856    0.0000 C.2     1  UNL1        0.3180
     25 C          10.3312    0.2144    0.0000 C.ar    1  UNL1        0.0682
     26 C           9.4651   -0.2856    0.0000 C.ar    1  UNL1       -0.0019
     27 C          10.3151    1.2559    0.0000 C.ar    1  UNL1        0.2003
     28 C           4.2690   -3.2856    0.0000 C.3     1  UNL1        0.1418
     29 C          11.2131    1.7836    0.0000 C.ar    1  UNL1        0.0643
     30 C          12.1152    1.2628    0.0000 C.ar    1  UNL1        0.1038
     31 C          11.2093    2.7836    0.0000 C.ar    1  UNL1       -0.0110
     32 C           7.7331   -1.2856    0.0000 C.3     1  UNL1        0.0790
     33 C           3.4030   -2.7856    0.0000 C.2     1  UNL1        0.3155
     34 C          10.3413    3.2803    0.0000 C.ar    1  UNL1       -0.0504
     35 C          12.0734    3.2869    0.0000 C.ar    1  UNL1       -0.0504
     36 C          10.3375    4.2802    0.0000 C.ar    1  UNL1       -0.0196
     37 C          12.0695    4.2869    0.0000 C.ar    1  UNL1       -0.0196
     38 C          11.2016    4.7836    0.0000 C.ar    1  UNL1        0.1169
     39 H           7.7331   -4.9056    0.0000 H       1  UNL1        0.0647
     40 H           9.1360   -5.0956    0.0000 H       1  UNL1        0.0648
     41 H           7.7331   -2.6656    0.0000 H       1  UNL1        0.0658
     42 H           9.4651   -4.9056    0.0000 H       1  UNL1        0.0683
     43 H          10.0021   -3.5956    0.0000 H       1  UNL1        0.1084
     44 H           7.2656   -2.3107    0.0000 H       1  UNL1        0.0724
     45 H           6.4685   -2.3107    0.0000 H       1  UNL1        0.0724
     46 H           6.8671   -5.4056    0.0000 H       1  UNL1        0.2100
     47 H           8.0622   -6.0956    0.0000 H       1  UNL1        0.2100
     48 H          10.3312   -5.4056    0.0000 H       1  UNL1        0.2102
     49 H          11.7341   -1.5956    0.0000 H       1  UNL1        0.0692
     50 H           8.9282    0.0244    0.0000 H       1  UNL1        0.0663
     51 H           3.8705   -3.7606    0.0000 H       1  UNL1        0.0493
     52 H           4.6675   -3.7606    0.0000 H       1  UNL1        0.0493
     53 H          12.6533    1.5707    0.0000 H       1  UNL1        0.1037
     54 H           8.0431   -0.7487    0.0000 H       1  UNL1        0.0660
     55 H           7.1962   -0.9756    0.0000 H       1  UNL1        0.0660
     56 H           7.4231   -1.8226    0.0000 H       1  UNL1        0.0660
     57 H           9.8056    2.9682    0.0000 H       1  UNL1        0.0625
     58 H          12.6115    2.9790    0.0000 H       1  UNL1        0.0625
     59 H           9.7994    4.5882    0.0000 H       1  UNL1        0.0654
     60 H          12.6053    4.5990    0.0000 H       1  UNL1        0.0654
     61 H           2.0000   -2.9756    0.0000 H       1  UNL1        0.2951
     62 H          11.7335    6.0956    0.0000 H       1  UNL1        0.2921
@<TRIPOS>BOND
     1     1    16    1
     2     1    18    1
     3    18     2    1
     4     2    20    1
     5    14     3    1
     6     3    46    1
     7    15     4    1
     8     4    47    1
     9    17     5    1
    10     5    48    1
    11     6    19    1
    12     6    24    1
    13     7    21    1
    14     7    32    1
    15     8    23   ar
    16     8    30   ar
    17     9    24    2
    18    10    27    2
    19    11    33    1
    20    11    61    1
    21    12    33    2
    22    13    38    1
    23    13    62    1
    24    14    15    1
    25    14    16    1
    26    14    39    1
    27    15    17    1
    28    15    40    1
    29    16    19    1
    30    16    41    1
    31    17    18    1
    32    17    42    1
    33    18    43    1
    34    19    44    1
    35    19    45    1
    36    20    21   ar
    37    20    22   ar
    38    21    26   ar
    39    22    23   ar
    40    22    49    1
    41    23    25   ar
    42    24    28    1
    43    25    26   ar
    44    25    27   ar
    45    26    50    1
    46    27    29   ar
    47    28    33    1
    48    28    51    1
    49    28    52    1
    50    29    30   ar
    51    29    31    1
    52    30    53    1
    53    31    34   ar
    54    31    35   ar
    55    32    54    1
    56    32    55    1
    57    32    56    1
    58    34    36   ar
    59    34    57    1
    60    35    37   ar
    61    35    58    1
    62    36    38   ar
    63    36    59    1
    64    37    38   ar
    65    37    60    1
