@<TRIPOS>MOLECULE
IMPHY010236
 125 132 0 0 0
SMALL
GASTEIGER

@<TRIPOS>ATOM
      1 O          14.8541   -0.8613    0.0000 O.3     1  UNL1       -0.3877
      2 O           9.4651    0.2119    0.0000 O.3     1  UNL1       -0.3480
      3 O          16.0950   -5.7394    0.0000 O.3     1  UNL1       -0.4571
      4 O           7.7331    0.2119    0.0000 O.3     1  UNL1       -0.3456
      5 O          17.8545   -6.0219    0.0000 O.2     1  UNL1       -0.2456
      6 O           7.7331   -2.7881    0.0000 O.3     1  UNL1       -0.3770
      7 O           6.0010   -1.7881    0.0000 O.3     1  UNL1       -0.3403
      8 O           5.1350   -0.2881    0.0000 O.3     1  UNL1       -0.3405
      9 O           4.2690   -2.7881    0.0000 O.3     1  UNL1       -0.3841
     10 O           2.5369   -1.7881    0.0000 O.3     1  UNL1       -0.3864
     11 O           2.5369    0.2119    0.0000 O.3     1  UNL1       -0.3865
     12 O           5.1350    1.7119    0.0000 O.3     1  UNL1       -0.3460
     13 O           6.0010    3.2119    0.0000 O.3     1  UNL1       -0.3405
     14 O           3.4030    2.7119    0.0000 O.3     1  UNL1       -0.3841
     15 O           3.4030    4.7119    0.0000 O.3     1  UNL1       -0.3864
     16 O           5.1350    5.7119    0.0000 O.3     1  UNL1       -0.3865
     17 O           7.7331    4.2119    0.0000 O.3     1  UNL1       -0.3924
     18 C          14.8503   -1.8612    0.0000 C.3     1  UNL1        0.0751
     19 C          13.9862   -1.3579    0.0000 C.3     1  UNL1       -0.0083
     20 C          13.1182   -1.8546    0.0000 C.3     1  UNL1       -0.0299
     21 C          14.8464   -2.8612    0.0000 C.3     1  UNL1        0.0036
     22 C          12.2102   -1.3442    0.0000 C.3     1  UNL1       -0.0259
     23 C          12.2062   -0.3026    0.0000 C.3     1  UNL1       -0.0330
     24 C          13.1144   -2.8546    0.0000 C.3     1  UNL1       -0.0488
     25 C          13.9785   -3.3579    0.0000 C.3     1  UNL1       -0.0442
     26 C          15.7915   -3.1696    0.0000 C.3     1  UNL1       -0.0081
     27 C          14.0063   -0.3165    0.0000 C.3     1  UNL1       -0.0470
     28 C          15.7977   -1.5602    0.0000 C.3     1  UNL1       -0.0226
     29 C          13.1103    0.2147    0.0000 C.3     1  UNL1       -0.0493
     30 C          16.3782   -2.3671    0.0000 C.3     1  UNL1       -0.0432
     31 C          11.2812   -1.9047    0.0000 C.3     1  UNL1       -0.0448
     32 C          11.2729    0.2507    0.0000 C.3     1  UNL1       -0.0232
     33 C          14.8426   -3.8612    0.0000 C.3     1  UNL1       -0.0564
     34 C          12.2140   -2.3442    0.0000 C.3     1  UNL1       -0.0590
     35 C          10.3353   -1.3731    0.0000 C.3     1  UNL1       -0.0260
     36 C          10.3312   -0.2881    0.0000 C.3     1  UNL1        0.0620
     37 C          16.0985   -4.1213    0.0000 C.2     1  UNL1       -0.0222
     38 C          15.5090   -4.9291    0.0000 C.3     1  UNL1        0.1147
     39 C          17.0489   -4.4324    0.0000 C.2     1  UNL1        0.0252
     40 C           8.5991   -0.2881    0.0000 C.3     1  UNL1        0.1624
     41 C          17.0467   -5.4324    0.0000 C.2     1  UNL1        0.3323
     42 C           8.5991   -1.2881    0.0000 C.3     1  UNL1        0.0272
     43 C           7.7331   -1.7881    0.0000 C.3     1  UNL1        0.0915
     44 C           6.8671   -0.2881    0.0000 C.3     1  UNL1        0.0875
     45 C           6.8671   -1.2881    0.0000 C.3     1  UNL1        0.1138
     46 C           6.0010    0.2119    0.0000 C.3     1  UNL1       -0.0361
     47 C           5.1350   -1.2881    0.0000 C.3     1  UNL1        0.1884
     48 C           8.5991   -3.2881    0.0000 C.3     1  UNL1        0.0369
     49 C           4.2690   -1.7881    0.0000 C.3     1  UNL1        0.1341
     50 C           3.4030   -1.2881    0.0000 C.3     1  UNL1        0.1141
     51 C           4.2690    0.2119    0.0000 C.3     1  UNL1        0.1134
     52 C           3.4030   -0.2881    0.0000 C.3     1  UNL1        0.1119
     53 C           4.2690    1.2119    0.0000 C.3     1  UNL1        0.0796
     54 C           5.1350    2.7119    0.0000 C.3     1  UNL1        0.1880
     55 C           4.2690    3.2119    0.0000 C.3     1  UNL1        0.1341
     56 C           4.2690    4.2119    0.0000 C.3     1  UNL1        0.1141
     57 C           5.1350    4.7119    0.0000 C.3     1  UNL1        0.1119
     58 C           6.0010    4.2119    0.0000 C.3     1  UNL1        0.1130
     59 C           6.8671    4.7119    0.0000 C.3     1  UNL1        0.0730
     60 H          14.7272   -0.9414    0.0000 H       1  UNL1        0.0331
     61 H          13.8527   -2.2824    0.0000 H       1  UNL1        0.0310
     62 H          12.2127    0.5474    0.0000 H       1  UNL1        0.0307
     63 H          12.5042   -2.7445    0.0000 H       1  UNL1        0.0268
     64 H          12.9001   -3.4364    0.0000 H       1  UNL1        0.0268
     65 H          13.5781   -3.8313    0.0000 H       1  UNL1        0.0272
     66 H          14.3752   -3.8344    0.0000 H       1  UNL1        0.0272
     67 H          16.4036   -3.2682    0.0000 H       1  UNL1        0.0353
     68 H          14.6150   -0.4343    0.0000 H       1  UNL1        0.0269
     69 H          14.2265    0.2631    0.0000 H       1  UNL1        0.0269
     70 H          16.3362   -1.2530    0.0000 H       1  UNL1        0.0293
     71 H          15.5488   -0.9923    0.0000 H       1  UNL1        0.0293
     72 H          13.5130    0.6861    0.0000 H       1  UNL1        0.0268
     73 H          12.7148    0.6922    0.0000 H       1  UNL1        0.0268
     74 H          16.8374   -2.7836    0.0000 H       1  UNL1        0.0272
     75 H          16.8406   -1.9542    0.0000 H       1  UNL1        0.0272
     76 H          10.8894   -2.3852    0.0000 H       1  UNL1        0.0271
     77 H          11.6876   -2.3730    0.0000 H       1  UNL1        0.0271
     78 H          11.6757    0.7221    0.0000 H       1  UNL1        0.0293
     79 H          10.8774    0.7282    0.0000 H       1  UNL1        0.0293
     80 H          14.2226   -3.8588    0.0000 H       1  UNL1        0.0236
     81 H          14.8402   -4.4812    0.0000 H       1  UNL1        0.0236
     82 H          15.4626   -3.8636    0.0000 H       1  UNL1        0.0236
     83 H          11.5941   -2.3466    0.0000 H       1  UNL1        0.0235
     84 H          12.2164   -2.9642    0.0000 H       1  UNL1        0.0235
     85 H          12.8340   -2.3418    0.0000 H       1  UNL1        0.0235
     86 H           9.7241   -1.2694    0.0000 H       1  UNL1        0.0290
     87 H          10.1285   -1.9576    0.0000 H       1  UNL1        0.0290
     88 H           9.7948   -0.5992    0.0000 H       1  UNL1        0.0597
     89 H          15.3923   -0.5533    0.0000 H       1  UNL1        0.2102
     90 H          15.0491   -4.5132    0.0000 H       1  UNL1        0.0746
     91 H          15.0473   -5.3430    0.0000 H       1  UNL1        0.0746
     92 H          17.5512   -4.0690    0.0000 H       1  UNL1        0.0689
     93 H           8.5991    0.3319    0.0000 H       1  UNL1        0.0910
     94 H           8.8112   -1.8708    0.0000 H       1  UNL1        0.0340
     95 H           9.2097   -1.1805    0.0000 H       1  UNL1        0.0340
     96 H           8.2700   -2.0981    0.0000 H       1  UNL1        0.0624
     97 H           6.8671    0.3319    0.0000 H       1  UNL1        0.0621
     98 H           6.3301   -0.9781    0.0000 H       1  UNL1        0.0649
     99 H           6.3110    0.7488    0.0000 H       1  UNL1        0.0255
    100 H           5.4641    0.5219    0.0000 H       1  UNL1        0.0255
    101 H           5.6910   -0.3251    0.0000 H       1  UNL1        0.0255
    102 H           5.1350   -1.9081    0.0000 H       1  UNL1        0.0938
    103 H           8.2891   -3.8251    0.0000 H       1  UNL1        0.0524
    104 H           9.1360   -3.5981    0.0000 H       1  UNL1        0.0524
    105 H           8.9091   -2.7512    0.0000 H       1  UNL1        0.0524
    106 H           3.7320   -2.0981    0.0000 H       1  UNL1        0.0671
    107 H           2.8660   -0.9781    0.0000 H       1  UNL1        0.0648
    108 H           4.8059    0.5219    0.0000 H       1  UNL1        0.0647
    109 H           3.4030    0.3319    0.0000 H       1  UNL1        0.0647
    110 H           3.7320   -3.0981    0.0000 H       1  UNL1        0.2101
    111 H           4.0569    1.7945    0.0000 H       1  UNL1        0.0587
    112 H           3.6584    1.1042    0.0000 H       1  UNL1        0.0587
    113 H           2.0000   -1.4781    0.0000 H       1  UNL1        0.2100
    114 H           2.5369    0.8319    0.0000 H       1  UNL1        0.2100
    115 H           4.5981    2.4019    0.0000 H       1  UNL1        0.0937
    116 H           3.7320    3.5219    0.0000 H       1  UNL1        0.0671
    117 H           4.2690    4.8319    0.0000 H       1  UNL1        0.0648
    118 H           5.6720    5.0219    0.0000 H       1  UNL1        0.0647
    119 H           6.5380    3.9019    0.0000 H       1  UNL1        0.0647
    120 H           7.2656    5.1868    0.0000 H       1  UNL1        0.0584
    121 H           6.4685    5.1868    0.0000 H       1  UNL1        0.0584
    122 H           2.8660    3.0219    0.0000 H       1  UNL1        0.2101
    123 H           3.4030    5.3319    0.0000 H       1  UNL1        0.2100
    124 H           5.6720    6.0219    0.0000 H       1  UNL1        0.2100
    125 H           8.2700    4.5219    0.0000 H       1  UNL1        0.2095
@<TRIPOS>BOND
     1    18     1    1
     2     1    89    1
     3    36     2    1
     4    40     2    1
     5     3    38    1
     6     3    41    1
     7     4    40    1
     8     4    44    1
     9     5    41    2
    10    43     6    1
    11     6    48    1
    12    45     7    1
    13    47     7    1
    14     8    47    1
    15     8    51    1
    16    49     9    1
    17     9   110    1
    18    50    10    1
    19    10   113    1
    20    52    11    1
    21    11   114    1
    22    12    53    1
    23    54    12    1
    24    13    54    1
    25    13    58    1
    26    55    14    1
    27    14   122    1
    28    56    15    1
    29    15   123    1
    30    57    16    1
    31    16   124    1
    32    17    59    1
    33    17   125    1
    34    18    19    1
    35    18    21    1
    36    18    28    1
    37    19    20    1
    38    19    27    1
    39    19    60    1
    40    20    22    1
    41    20    24    1
    42    20    61    1
    43    21    25    1
    44    21    26    1
    45    21    33    1
    46    22    23    1
    47    22    31    1
    48    22    34    1
    49    23    29    1
    50    23    32    1
    51    23    62    1
    52    24    25    1
    53    24    63    1
    54    24    64    1
    55    25    65    1
    56    25    66    1
    57    26    30    1
    58    26    37    1
    59    26    67    1
    60    27    29    1
    61    27    68    1
    62    27    69    1
    63    28    30    1
    64    28    70    1
    65    28    71    1
    66    29    72    1
    67    29    73    1
    68    30    74    1
    69    30    75    1
    70    31    35    1
    71    31    76    1
    72    31    77    1
    73    32    36    1
    74    32    78    1
    75    32    79    1
    76    33    80    1
    77    33    81    1
    78    33    82    1
    79    34    83    1
    80    34    84    1
    81    34    85    1
    82    35    36    1
    83    35    86    1
    84    35    87    1
    85    36    88    1
    86    37    38    1
    87    37    39    2
    88    38    90    1
    89    38    91    1
    90    39    41    1
    91    39    92    1
    92    40    42    1
    93    40    93    1
    94    42    43    1
    95    42    94    1
    96    42    95    1
    97    43    45    1
    98    43    96    1
    99    44    45    1
   100    44    46    1
   101    44    97    1
   102    45    98    1
   103    46    99    1
   104    46   100    1
   105    46   101    1
   106    47    49    1
   107    47   102    1
   108    48   103    1
   109    48   104    1
   110    48   105    1
   111    49    50    1
   112    49   106    1
   113    50    52    1
   114    50   107    1
   115    51    52    1
   116    51    53    1
   117    51   108    1
   118    52   109    1
   119    53   111    1
   120    53   112    1
   121    54    55    1
   122    54   115    1
   123    55    56    1
   124    55   116    1
   125    56    57    1
   126    56   117    1
   127    57    58    1
   128    57   118    1
   129    58    59    1
   130    58   119    1
   131    59   120    1
   132    59   121    1
