@<TRIPOS>MOLECULE
IMPHY001963
 34 36 0 0 0
SMALL
GASTEIGER

@<TRIPOS>ATOM
      1 O           6.0562   -0.6063    0.0000 O.3     1  UNL1       -0.4510
      2 O           2.2188    0.7207    0.0000 O.3     1  UNL1       -0.4947
      3 O           4.6364   -1.8649    0.0000 O.3     1  UNL1       -0.5030
      4 O           8.3814    2.1022    0.0000 O.3     1  UNL1       -0.5061
      5 C           4.9327    0.8025    0.0000 C.ar    1  UNL1        0.0244
      6 C           5.1552   -0.1724    0.0000 C.ar    1  UNL1        0.1772
      7 C           3.4050   -0.5933    0.0000 C.ar    1  UNL1        0.0362
      8 C           4.4027   -0.8926    0.0000 C.ar    1  UNL1        0.1662
      9 C           3.1732    0.4223    0.0000 C.ar    1  UNL1        0.1272
     10 C           7.1797    0.8025    0.0000 C.ar    1  UNL1        0.0586
     11 C           3.9422    1.1248    0.0000 C.ar    1  UNL1       -0.0088
     12 C           6.9572   -0.1724    0.0000 C.ar    1  UNL1        0.1392
     13 C           5.5562    1.5843    0.0000 C.2     1  UNL1       -0.0501
     14 C           6.5562    1.5843    0.0000 C.2     1  UNL1       -0.0469
     15 C           2.6745   -1.2762    0.0000 C.3     1  UNL1       -0.0326
     16 C           8.1702    1.1248    0.0000 C.ar    1  UNL1        0.1275
     17 C           7.7097   -0.8926    0.0000 C.ar    1  UNL1       -0.0185
     18 C           8.9392    0.4222    0.0000 C.ar    1  UNL1       -0.0194
     19 C           8.7074   -0.5933    0.0000 C.ar    1  UNL1       -0.0548
     20 C           2.0000    1.6965    0.0000 C.3     1  UNL1        0.0788
     21 H           3.8112    1.7308    0.0000 H       1  UNL1        0.0661
     22 H           5.2872    2.1429    0.0000 H       1  UNL1        0.0625
     23 H           6.8252    2.1429    0.0000 H       1  UNL1        0.0626
     24 H           2.2511   -0.8234    0.0000 H       1  UNL1        0.0280
     25 H           2.2217   -1.6997    0.0000 H       1  UNL1        0.0280
     26 H           3.0980   -1.7291    0.0000 H       1  UNL1        0.0280
     27 H           7.5648   -1.4954    0.0000 H       1  UNL1        0.0654
     28 H           9.5309    0.6072    0.0000 H       1  UNL1        0.0654
     29 H           9.1602   -1.0168    0.0000 H       1  UNL1        0.0620
     30 H           4.1868   -2.2918    0.0000 H       1  UNL1        0.2923
     31 H           2.6050    1.8321    0.0000 H       1  UNL1        0.0660
     32 H           1.8644    2.3015    0.0000 H       1  UNL1        0.0660
     33 H           1.3950    1.5609    0.0000 H       1  UNL1        0.0660
     34 H           8.9717    2.2918    0.0000 H       1  UNL1        0.2922
@<TRIPOS>BOND
     1     1     6    1
     2     1    12    1
     3     2     9    1
     4     2    20    1
     5     3     8    1
     6     3    30    1
     7     4    16    1
     8     4    34    1
     9     5     6   ar
    10     5    11   ar
    11     5    13    1
    12     6     8   ar
    13     7     8   ar
    14     7     9   ar
    15     7    15    1
    16     9    11   ar
    17    10    12   ar
    18    10    14    1
    19    10    16   ar
    20    11    21    1
    21    12    17   ar
    22    13    14    2
    23    13    22    1
    24    14    23    1
    25    15    24    1
    26    15    25    1
    27    15    26    1
    28    16    18   ar
    29    17    19   ar
    30    17    27    1
    31    18    19   ar
    32    18    28    1
    33    19    29    1
    34    20    31    1
    35    20    32    1
    36    20    33    1
