@<TRIPOS>MOLECULE
IMPHY006093
 74 77 0 0 0
SMALL
GASTEIGER

@<TRIPOS>ATOM
      1 O          10.1362    0.2340    0.0000 O.3     1  UNL1       -0.3885
      2 O           2.5357   -3.7629    0.0000 O.3     1  UNL1       -0.3915
      3 C           7.9288   -0.7105    0.0000 C.3     1  UNL1       -0.0201
      4 C           7.9288   -1.7105    0.0000 C.3     1  UNL1       -0.0136
      5 C           8.8750   -0.4058    0.0000 C.3     1  UNL1       -0.0064
      6 C           6.1968   -1.7105    0.0000 C.3     1  UNL1       -0.0102
      7 C           7.0628   -0.2105    0.0000 C.3     1  UNL1       -0.0462
      8 C           8.8750   -2.0153    0.0000 C.3     1  UNL1       -0.0456
      9 C           7.0628   -2.2105    0.0000 C.2     1  UNL1       -0.0620
     10 C           9.4586   -1.2105    0.0000 C.3     1  UNL1       -0.0465
     11 C           5.2868   -2.2174    0.0000 C.3     1  UNL1       -0.0041
     12 C           6.1968   -0.7105    0.0000 C.3     1  UNL1       -0.0452
     13 C           9.1857    0.5447    0.0000 C.3     1  UNL1        0.0669
     14 C           7.9288    0.2895    0.0000 C.3     1  UNL1       -0.0587
     15 C           5.2787   -3.2590    0.0000 C.2     1  UNL1       -0.0607
     16 C           4.3599   -1.6533    0.0000 C.3     1  UNL1       -0.0410
     17 C           7.0789   -3.2520    0.0000 C.2     1  UNL1       -0.0620
     18 C           9.4964    1.4952    0.0000 C.3     1  UNL1       -0.0203
     19 C           5.2945   -1.2174    0.0000 C.3     1  UNL1       -0.0553
     20 C           6.1808   -3.7798    0.0000 C.2     1  UNL1       -0.0619
     21 C           4.3433   -3.8087    0.0000 C.3     1  UNL1       -0.0048
     22 C           8.2352    0.8554    0.0000 C.3     1  UNL1       -0.0358
     23 C           3.4120   -2.1812    0.0000 C.3     1  UNL1       -0.0258
     24 C           3.4037   -3.2662    0.0000 C.3     1  UNL1        0.0590
     25 C          10.4749    1.7014    0.0000 C.3     1  UNL1       -0.0292
     26 C          10.7855    2.6520    0.0000 C.2     1  UNL1       -0.0740
     27 C          11.7640    2.8582    0.0000 C.3     1  UNL1       -0.0258
     28 C          10.1177    3.3963    0.0000 C.2     1  UNL1       -0.0992
     29 C          12.0747    3.8087    0.0000 C.3     1  UNL1       -0.0590
     30 C          12.4319    2.1139    0.0000 C.3     1  UNL1       -0.0590
     31 H           7.9944   -2.3271    0.0000 H       1  UNL1        0.0351
     32 H           9.4875   -0.3096    0.0000 H       1  UNL1        0.0334
     33 H           6.7337   -1.4005    0.0000 H       1  UNL1        0.0354
     34 H           7.4613    0.2644    0.0000 H       1  UNL1        0.0271
     35 H           6.6643    0.2644    0.0000 H       1  UNL1        0.0271
     36 H           8.6240   -2.5822    0.0000 H       1  UNL1        0.0271
     37 H           9.4124   -2.3245    0.0000 H       1  UNL1        0.0271
     38 H           9.9195   -1.6253    0.0000 H       1  UNL1        0.0269
     39 H           9.9195   -0.7958    0.0000 H       1  UNL1        0.0269
     40 H           5.9847   -0.1279    0.0000 H       1  UNL1        0.0271
     41 H           5.5862   -0.8182    0.0000 H       1  UNL1        0.0271
     42 H           8.5488    0.2895    0.0000 H       1  UNL1        0.0235
     43 H           7.9288    0.9095    0.0000 H       1  UNL1        0.0235
     44 H           7.3088    0.2895    0.0000 H       1  UNL1        0.0235
     45 H           4.7681   -1.1866    0.0000 H       1  UNL1        0.0275
     46 H           3.9700   -1.1713    0.0000 H       1  UNL1        0.0275
     47 H           7.6193   -3.5558    0.0000 H       1  UNL1        0.0617
     48 H           9.4758    2.1149    0.0000 H       1  UNL1        0.0296
     49 H           8.8826    1.5826    0.0000 H       1  UNL1        0.0296
     50 H           5.9145   -1.2222    0.0000 H       1  UNL1        0.0238
     51 H           5.2993   -0.5974    0.0000 H       1  UNL1        0.0238
     52 H           4.6745   -1.2126    0.0000 H       1  UNL1        0.0238
     53 H           6.1832   -4.3998    0.0000 H       1  UNL1        0.0617
     54 H           3.9460   -4.2847    0.0000 H       1  UNL1        0.0335
     55 H           4.7443   -4.2816    0.0000 H       1  UNL1        0.0335
     56 H           8.4278    1.4447    0.0000 H       1  UNL1        0.0257
     57 H           7.6459    1.0480    0.0000 H       1  UNL1        0.0257
     58 H           8.0426    0.2661    0.0000 H       1  UNL1        0.0257
     59 H           3.2075   -1.5960    0.0000 H       1  UNL1        0.0290
     60 H           2.8004   -2.2826    0.0000 H       1  UNL1        0.0290
     61 H           3.4025   -3.8862    0.0000 H       1  UNL1        0.0596
     62 H          10.5977    0.6481    0.0000 H       1  UNL1        0.2102
     63 H          10.4954    1.0818    0.0000 H       1  UNL1        0.0311
     64 H          11.0887    1.6141    0.0000 H       1  UNL1        0.0311
     65 H           2.0000   -3.4508    0.0000 H       1  UNL1        0.2098
     66 H          12.3707    2.9860    0.0000 H       1  UNL1        0.0340
     67 H          10.3103    3.9856    0.0000 H       1  UNL1        0.0534
     68 H           9.5110    3.2684    0.0000 H       1  UNL1        0.0534
     69 H          11.9704    1.6998    0.0000 H       1  UNL1        0.0235
     70 H          12.8459    1.6524    0.0000 H       1  UNL1        0.0235
     71 H          12.8934    2.5280    0.0000 H       1  UNL1        0.0235
     72 H          12.6640    3.6161    0.0000 H       1  UNL1        0.0235
     73 H          12.2673    4.3980    0.0000 H       1  UNL1        0.0235
     74 H          11.4854    4.0013    0.0000 H       1  UNL1        0.0235
@<TRIPOS>BOND
     1     1    13    1
     2     1    62    1
     3     2    24    1
     4     2    65    1
     5     3     4    1
     6     3     5    1
     7     3     7    1
     8     3    14    1
     9     4     8    1
    10     4     9    1
    11     4    31    1
    12     5    10    1
    13     5    13    1
    14     5    32    1
    15     6     9    1
    16     6    11    1
    17     6    12    1
    18     6    33    1
    19     7    12    1
    20     7    34    1
    21     7    35    1
    22     8    10    1
    23     8    36    1
    24     8    37    1
    25     9    17    2
    26    10    38    1
    27    10    39    1
    28    11    15    1
    29    11    16    1
    30    11    19    1
    31    12    40    1
    32    12    41    1
    33    13    18    1
    34    13    22    1
    35    14    42    1
    36    14    43    1
    37    14    44    1
    38    15    20    2
    39    15    21    1
    40    16    23    1
    41    16    45    1
    42    16    46    1
    43    17    20    1
    44    17    47    1
    45    18    25    1
    46    18    48    1
    47    18    49    1
    48    19    50    1
    49    19    51    1
    50    19    52    1
    51    20    53    1
    52    21    24    1
    53    21    54    1
    54    21    55    1
    55    22    56    1
    56    22    57    1
    57    22    58    1
    58    23    24    1
    59    23    59    1
    60    23    60    1
    61    24    61    1
    62    25    26    1
    63    25    63    1
    64    25    64    1
    65    26    27    1
    66    26    28    2
    67    27    29    1
    68    27    30    1
    69    27    66    1
    70    28    67    1
    71    28    68    1
    72    29    72    1
    73    29    73    1
    74    29    74    1
    75    30    69    1
    76    30    70    1
    77    30    71    1
