@<TRIPOS>MOLECULE
IMPHY000314
 25 25 0 0 0
SMALL
GASTEIGER

@<TRIPOS>ATOM
      1 O           2.5896   -0.5830    0.0000 O.3     1  UNL1       -0.4804
      2 O           3.1249    1.0643    0.0000 O.2     1  UNL1       -0.2507
      3 C           5.0929    0.3649    0.0000 C.3     1  UNL1       -0.0010
      4 C           4.2839   -0.2229    0.0000 C.3     1  UNL1        0.0684
      5 C           5.9019   -0.2229    0.0000 C.2     1  UNL1       -0.0701
      6 C           4.5929   -1.1739    0.0000 C.3     1  UNL1       -0.0208
      7 C           5.5929   -1.1739    0.0000 C.2     1  UNL1       -0.0837
      8 C           5.6807    1.1739    0.0000 C.3     1  UNL1       -0.0553
      9 C           4.5051    1.1739    0.0000 C.3     1  UNL1       -0.0553
     10 C           3.3328    0.0861    0.0000 C.2     1  UNL1        0.3089
     11 C           6.8530    0.0861    0.0000 C.3     1  UNL1       -0.0433
     12 H           3.6828   -0.8239    0.0000 H       1  UNL1        0.0425
     13 H           3.9864   -1.3028    0.0000 H       1  UNL1        0.0316
     14 H           4.6577   -1.7905    0.0000 H       1  UNL1        0.0316
     15 H           5.9573   -1.6755    0.0000 H       1  UNL1        0.0572
     16 H           6.1822    0.8095    0.0000 H       1  UNL1        0.0238
     17 H           6.0451    1.6755    0.0000 H       1  UNL1        0.0238
     18 H           5.1791    1.5384    0.0000 H       1  UNL1        0.0238
     19 H           5.0067    1.5384    0.0000 H       1  UNL1        0.0238
     20 H           4.1407    1.6755    0.0000 H       1  UNL1        0.0238
     21 H           4.0035    0.8095    0.0000 H       1  UNL1        0.0238
     22 H           7.0445   -0.5035    0.0000 H       1  UNL1        0.0275
     23 H           7.4426    0.2777    0.0000 H       1  UNL1        0.0275
     24 H           6.6614    0.6758    0.0000 H       1  UNL1        0.0275
     25 H           2.0000   -0.3914    0.0000 H       1  UNL1        0.2951
@<TRIPOS>BOND
     1     1    10    1
     2     1    25    1
     3     2    10    2
     4     3     4    1
     5     3     5    1
     6     3     8    1
     7     3     9    1
     8     4     6    1
     9     4    10    1
    10     4    12    1
    11     5     7    2
    12     5    11    1
    13     6     7    1
    14     6    13    1
    15     6    14    1
    16     7    15    1
    17     8    16    1
    18     8    17    1
    19     8    18    1
    20     9    19    1
    21     9    20    1
    22     9    21    1
    23    11    22    1
    24    11    23    1
    25    11    24    1
