@<TRIPOS>MOLECULE
IMPHY017669
 36 36 0 0 0
SMALL
GASTEIGER

@<TRIPOS>ATOM
      1 O           3.0000    1.7500    0.0000 O.3     1  UNL1       -0.4585
      2 O           4.7320    1.7500    0.0000 O.2     1  UNL1       -0.2511
      3 C           3.0000   -0.2500    0.0000 C.3     1  UNL1       -0.0015
      4 C           2.1340   -0.7500    0.0000 C.3     1  UNL1       -0.0464
      5 C           3.8660   -0.7500    0.0000 C.3     1  UNL1       -0.0464
      6 C           3.0000   -2.2500    0.0000 C.3     1  UNL1       -0.0439
      7 C           3.0000    0.7500    0.0000 C.3     1  UNL1        0.1107
      8 C           2.1340   -1.7500    0.0000 C.3     1  UNL1       -0.0501
      9 C           3.8660   -1.7500    0.0000 C.3     1  UNL1       -0.0501
     10 C           3.0000   -3.2500    0.0000 C.3     1  UNL1       -0.0624
     11 C           4.0000    0.7500    0.0000 C.3     1  UNL1       -0.0248
     12 C           2.0000    0.7500    0.0000 C.3     1  UNL1       -0.0248
     13 C           3.8660    2.2500    0.0000 C.2     1  UNL1        0.3045
     14 C           3.8660    3.2500    0.0000 C.3     1  UNL1        0.0333
     15 H           3.5369    0.0600    0.0000 H       1  UNL1        0.0339
     16 H           1.9219   -0.1674    0.0000 H       1  UNL1        0.0269
     17 H           1.5234   -0.8577    0.0000 H       1  UNL1        0.0269
     18 H           4.4766   -0.8577    0.0000 H       1  UNL1        0.0269
     19 H           4.0781   -0.1674    0.0000 H       1  UNL1        0.0269
     20 H           3.5369   -2.5600    0.0000 H       1  UNL1        0.0298
     21 H           1.5234   -1.6423    0.0000 H       1  UNL1        0.0268
     22 H           1.9219   -2.3326    0.0000 H       1  UNL1        0.0268
     23 H           4.0781   -2.3326    0.0000 H       1  UNL1        0.0268
     24 H           4.4766   -1.6423    0.0000 H       1  UNL1        0.0268
     25 H           2.3800   -3.2500    0.0000 H       1  UNL1        0.0232
     26 H           3.0000   -3.8700    0.0000 H       1  UNL1        0.0232
     27 H           3.6200   -3.2500    0.0000 H       1  UNL1        0.0232
     28 H           4.0000    0.1300    0.0000 H       1  UNL1        0.0268
     29 H           4.6200    0.7500    0.0000 H       1  UNL1        0.0268
     30 H           4.0000    1.3700    0.0000 H       1  UNL1        0.0268
     31 H           2.0000    1.3700    0.0000 H       1  UNL1        0.0268
     32 H           1.3800    0.7500    0.0000 H       1  UNL1        0.0268
     33 H           2.0000    0.1300    0.0000 H       1  UNL1        0.0268
     34 H           4.4860    3.2500    0.0000 H       1  UNL1        0.0342
     35 H           3.8660    3.8700    0.0000 H       1  UNL1        0.0342
     36 H           3.2460    3.2500    0.0000 H       1  UNL1        0.0342
@<TRIPOS>BOND
     1     1     7    1
     2     1    13    1
     3     2    13    2
     4     3     4    1
     5     3     5    1
     6     3     7    1
     7     3    15    1
     8     4     8    1
     9     4    16    1
    10     4    17    1
    11     5     9    1
    12     5    18    1
    13     5    19    1
    14     6     8    1
    15     6     9    1
    16     6    10    1
    17     6    20    1
    18     7    11    1
    19     7    12    1
    20     8    21    1
    21     8    22    1
    22     9    23    1
    23     9    24    1
    24    10    25    1
    25    10    26    1
    26    10    27    1
    27    11    28    1
    28    11    29    1
    29    11    30    1
    30    12    31    1
    31    12    32    1
    32    12    33    1
    33    13    14    1
    34    14    34    1
    35    14    35    1
    36    14    36    1
