@<TRIPOS>MOLECULE
IMPHY004712
 46 48 0 0 0
SMALL
GASTEIGER

@<TRIPOS>ATOM
      1 O           6.0682    0.1253    0.0000 O.3     1  UNL1       -0.4898
      2 O           6.0682    3.1253    0.0000 O.2     1  UNL1       -0.2912
      3 O           2.5381    0.1012    0.0000 O.3     1  UNL1       -0.5064
      4 O           8.6663    0.6253    0.0000 O.3     1  UNL1       -0.5064
      5 O          10.3984    3.6253    0.0000 O.3     1  UNL1       -0.5066
      6 O           2.6226   -3.9291    0.0000 O.3     1  UNL1       -0.3907
      7 C           6.9343    1.6253    0.0000 C.3     1  UNL1        0.0846
      8 C           6.9343    0.6253    0.0000 C.3     1  UNL1        0.1036
      9 C           6.0682    2.1253    0.0000 C.2     1  UNL1        0.1774
     10 C           5.2022    1.6253    0.0000 C.ar    1  UNL1        0.0602
     11 C           5.2022    0.6253    0.0000 C.ar    1  UNL1        0.1379
     12 C           7.8003    2.1253    0.0000 C.ar    1  UNL1        0.0081
     13 C           4.3083    0.0906    0.0000 C.ar    1  UNL1        0.0400
     14 C           4.3198   -0.9093    0.0000 C.3     1  UNL1       -0.0022
     15 C           4.3083    2.1600    0.0000 C.ar    1  UNL1       -0.0443
     16 C           3.4022    0.6045    0.0000 C.ar    1  UNL1        0.1238
     17 C           8.6663    1.6253    0.0000 C.ar    1  UNL1        0.1243
     18 C           7.8003    3.1253    0.0000 C.ar    1  UNL1       -0.0509
     19 C           3.4022    1.6461    0.0000 C.ar    1  UNL1       -0.0190
     20 C           3.4597   -1.4193    0.0000 C.2     1  UNL1       -0.0783
     21 C           9.5323    2.1253    0.0000 C.ar    1  UNL1        0.0216
     22 C           8.6663    3.6253    0.0000 C.ar    1  UNL1       -0.0197
     23 C           9.5323    3.1253    0.0000 C.ar    1  UNL1        0.1203
     24 C           3.4712   -2.4192    0.0000 C.2     1  UNL1       -0.0512
     25 C           2.6110   -2.9292    0.0000 C.3     1  UNL1        0.0651
     26 C           4.3430   -2.9092    0.0000 C.3     1  UNL1       -0.0416
     27 H           6.9343    2.2453    0.0000 H       1  UNL1        0.0464
     28 H           7.1463    0.0427    0.0000 H       1  UNL1        0.0707
     29 H           7.5449    0.7330    0.0000 H       1  UNL1        0.0707
     30 H           4.5386   -1.4894    0.0000 H       1  UNL1        0.0358
     31 H           4.9291   -0.7946    0.0000 H       1  UNL1        0.0358
     32 H           4.3154    2.7799    0.0000 H       1  UNL1        0.0627
     33 H           7.2634    3.4353    0.0000 H       1  UNL1        0.0623
     34 H           2.8665    1.9582    0.0000 H       1  UNL1        0.0654
     35 H           2.9192   -1.1155    0.0000 H       1  UNL1        0.0576
     36 H          10.0693    1.8153    0.0000 H       1  UNL1        0.0691
     37 H           8.6663    4.2453    0.0000 H       1  UNL1        0.0654
     38 H           2.0000    0.4091    0.0000 H       1  UNL1        0.2921
     39 H           9.2033    0.3153    0.0000 H       1  UNL1        0.2921
     40 H           2.3923   -2.3491    0.0000 H       1  UNL1        0.0604
     41 H           2.0017   -3.0439    0.0000 H       1  UNL1        0.0604
     42 H           4.0392   -3.4496    0.0000 H       1  UNL1        0.0275
     43 H           4.8835   -3.2129    0.0000 H       1  UNL1        0.0275
     44 H           4.6468   -2.3687    0.0000 H       1  UNL1        0.0275
     45 H          10.3984    4.2453    0.0000 H       1  UNL1        0.2921
     46 H           2.0893   -4.2453    0.0000 H       1  UNL1        0.2098
@<TRIPOS>BOND
     1     1     8    1
     2     1    11    1
     3     2     9    2
     4     3    16    1
     5     3    38    1
     6     4    17    1
     7     4    39    1
     8     5    23    1
     9     5    45    1
    10     6    25    1
    11     6    46    1
    12     7     8    1
    13     7     9    1
    14     7    12    1
    15     7    27    1
    16     8    28    1
    17     8    29    1
    18     9    10    1
    19    10    11   ar
    20    10    15   ar
    21    11    13   ar
    22    12    17   ar
    23    12    18   ar
    24    13    14    1
    25    13    16   ar
    26    14    20    1
    27    14    30    1
    28    14    31    1
    29    15    19   ar
    30    15    32    1
    31    16    19   ar
    32    17    21   ar
    33    18    22   ar
    34    18    33    1
    35    19    34    1
    36    20    24    2
    37    20    35    1
    38    21    23   ar
    39    21    36    1
    40    22    23   ar
    41    22    37    1
    42    24    25    1
    43    24    26    1
    44    25    40    1
    45    25    41    1
    46    26    42    1
    47    26    43    1
    48    26    44    1
