@<TRIPOS>MOLECULE
IMPHY002787
 15 15 0 0 0
SMALL
GASTEIGER

@<TRIPOS>ATOM
      1 O           5.3122    0.6785    0.0000 O.2     1  UNL1       -0.2942
      2 N           2.8090   -0.2694    0.0000 N.ar    1  UNL1       -0.3477
      3 C           3.6180    0.3184    0.0000 C.ar    1  UNL1        0.0813
      4 C           2.0000    0.3184    0.0000 C.ar    1  UNL1        0.0049
      5 C           3.3090    1.2694    0.0000 C.ar    1  UNL1       -0.0337
      6 C           2.8090   -1.2694    0.0000 C.3     1  UNL1        0.0119
      7 C           2.3090    1.2694    0.0000 C.ar    1  UNL1       -0.0435
      8 C           4.5691    0.0093    0.0000 C.2     1  UNL1        0.1664
      9 H           1.4103    0.1268    0.0000 H       1  UNL1        0.0809
     10 H           3.6734    1.7710    0.0000 H       1  UNL1        0.0640
     11 H           2.1890   -1.2694    0.0000 H       1  UNL1        0.0456
     12 H           2.8090   -1.8894    0.0000 H       1  UNL1        0.0456
     13 H           3.4290   -1.2694    0.0000 H       1  UNL1        0.0456
     14 H           1.9446    1.7710    0.0000 H       1  UNL1        0.0633
     15 H           4.6980   -0.5971    0.0000 H       1  UNL1        0.1097
@<TRIPOS>BOND
     1     1     8    2
     2     2     3   ar
     3     2     4   ar
     4     2     6    1
     5     3     5   ar
     6     3     8    1
     7     4     7   ar
     8     4     9    1
     9     5     7   ar
    10     5    10    1
    11     6    11    1
    12     6    12    1
    13     6    13    1
    14     7    14    1
    15     8    15    1
