@<TRIPOS>MOLECULE
IMPHY000257
 46 45 0 0 0
SMALL
GASTEIGER

@<TRIPOS>ATOM
      1 O          16.7224   -0.2500    0.0000 O.2     1  UNL1       -0.2960
      2 O           2.0000    0.2500    0.0000 O.2     1  UNL1       -0.2960
      3 C          11.5263   -0.2500    0.0000 C.2     1  UNL1       -0.0504
      4 C           7.1962    0.2500    0.0000 C.2     1  UNL1       -0.0504
      5 C          10.6603    0.2500    0.0000 C.2     1  UNL1       -0.0588
      6 C           8.0622   -0.2500    0.0000 C.2     1  UNL1       -0.0588
      7 C          12.3923    0.2500    0.0000 C.2     1  UNL1       -0.0588
      8 C           6.3301   -0.2500    0.0000 C.2     1  UNL1       -0.0588
      9 C           9.7942   -0.2500    0.0000 C.2     1  UNL1       -0.0615
     10 C           8.9282    0.2500    0.0000 C.2     1  UNL1       -0.0615
     11 C          11.5263   -1.2500    0.0000 C.3     1  UNL1       -0.0397
     12 C           7.1962    1.2500    0.0000 C.3     1  UNL1       -0.0397
     13 C          13.2583   -0.2500    0.0000 C.2     1  UNL1       -0.0612
     14 C           5.4641    0.2500    0.0000 C.2     1  UNL1       -0.0612
     15 C          14.1244    0.2500    0.0000 C.2     1  UNL1       -0.0558
     16 C           4.5981   -0.2500    0.0000 C.2     1  UNL1       -0.0558
     17 C          14.9904   -0.2500    0.0000 C.2     1  UNL1       -0.0113
     18 C           3.7320    0.2500    0.0000 C.2     1  UNL1       -0.0113
     19 C          14.9904   -1.2500    0.0000 C.3     1  UNL1       -0.0367
     20 C           3.7320    1.2500    0.0000 C.3     1  UNL1       -0.0367
     21 C          15.8564    0.2500    0.0000 C.2     1  UNL1        0.1460
     22 C           2.8660   -0.2500    0.0000 C.2     1  UNL1        0.1460
     23 H          10.6603    0.8700    0.0000 H       1  UNL1        0.0620
     24 H           8.0622   -0.8700    0.0000 H       1  UNL1        0.0620
     25 H          12.3923    0.8700    0.0000 H       1  UNL1        0.0620
     26 H           6.3301   -0.8700    0.0000 H       1  UNL1        0.0620
     27 H           9.7942   -0.8700    0.0000 H       1  UNL1        0.0618
     28 H           8.9282    0.8700    0.0000 H       1  UNL1        0.0618
     29 H          10.9063   -1.2500    0.0000 H       1  UNL1        0.0278
     30 H          11.5263   -1.8700    0.0000 H       1  UNL1        0.0278
     31 H          12.1463   -1.2500    0.0000 H       1  UNL1        0.0278
     32 H           7.8162    1.2500    0.0000 H       1  UNL1        0.0278
     33 H           7.1962    1.8700    0.0000 H       1  UNL1        0.0278
     34 H           6.5762    1.2500    0.0000 H       1  UNL1        0.0278
     35 H          13.2583   -0.8700    0.0000 H       1  UNL1        0.0618
     36 H           5.4641    0.8700    0.0000 H       1  UNL1        0.0618
     37 H          14.1244    0.8700    0.0000 H       1  UNL1        0.0621
     38 H           4.5981   -0.8700    0.0000 H       1  UNL1        0.0621
     39 H          14.3704   -1.2500    0.0000 H       1  UNL1        0.0278
     40 H          14.9904   -1.8700    0.0000 H       1  UNL1        0.0278
     41 H          15.6104   -1.2500    0.0000 H       1  UNL1        0.0278
     42 H           4.3520    1.2500    0.0000 H       1  UNL1        0.0278
     43 H           3.7320    1.8700    0.0000 H       1  UNL1        0.0278
     44 H           3.1120    1.2500    0.0000 H       1  UNL1        0.0278
     45 H          15.8564    0.8700    0.0000 H       1  UNL1        0.1078
     46 H           2.8660   -0.8700    0.0000 H       1  UNL1        0.1078
@<TRIPOS>BOND
     1     1    21    2
     2     2    22    2
     3     3     5    2
     4     3     7    1
     5     3    11    1
     6     4     6    2
     7     4     8    1
     8     4    12    1
     9     5     9    1
    10     5    23    1
    11     6    10    1
    12     6    24    1
    13     7    13    2
    14     7    25    1
    15     8    14    2
    16     8    26    1
    17     9    10    2
    18     9    27    1
    19    10    28    1
    20    11    29    1
    21    11    30    1
    22    11    31    1
    23    12    32    1
    24    12    33    1
    25    12    34    1
    26    13    15    1
    27    13    35    1
    28    14    16    1
    29    14    36    1
    30    15    17    2
    31    15    37    1
    32    16    18    2
    33    16    38    1
    34    17    19    1
    35    17    21    1
    36    18    20    1
    37    18    22    1
    38    19    39    1
    39    19    40    1
    40    19    41    1
    41    20    42    1
    42    20    43    1
    43    20    44    1
    44    21    45    1
    45    22    46    1
