@<TRIPOS>MOLECULE
IMPHY012052
 15 14 0 0 0
SMALL
GASTEIGER

@<TRIPOS>ATOM
      1 CL          2.0000   -0.7500    0.0000 Cl      1  UNL1       -0.0803
      2 CL          2.3660    0.6160    0.0000 Cl      1  UNL1       -0.0803
      3 CL          3.3660   -1.1160    0.0000 Cl      1  UNL1       -0.0803
      4 O           4.5981    0.7500    0.0000 O.3     1  UNL1       -0.3849
      5 C           3.7320    0.2500    0.0000 C.3     1  UNL1        0.1068
      6 C           2.8660   -0.2500    0.0000 C.3     1  UNL1        0.2182
      7 C           4.2320   -0.6160    0.0000 C.3     1  UNL1       -0.0323
      8 C           3.2320    1.1160    0.0000 C.3     1  UNL1       -0.0323
      9 H           3.6951   -0.9260    0.0000 H       1  UNL1        0.0258
     10 H           4.5420   -1.1530    0.0000 H       1  UNL1        0.0258
     11 H           4.7690   -0.3060    0.0000 H       1  UNL1        0.0258
     12 H           3.7690    1.4260    0.0000 H       1  UNL1        0.0258
     13 H           2.9220    1.6530    0.0000 H       1  UNL1        0.0258
     14 H           2.6951    0.8060    0.0000 H       1  UNL1        0.0258
     15 H           5.1350    0.4400    0.0000 H       1  UNL1        0.2103
@<TRIPOS>BOND
     1     1     6    1
     2     2     6    1
     3     3     6    1
     4     4     5    1
     5     4    15    1
     6     5     6    1
     7     5     7    1
     8     5     8    1
     9     7     9    1
    10     7    10    1
    11     7    11    1
    12     8    12    1
    13     8    13    1
    14     8    14    1
