@<TRIPOS>MOLECULE
IMPHY015005
 28 28 0 0 0
SMALL
GASTEIGER

@<TRIPOS>ATOM
      1 O           2.8660    1.8450    0.0000 O.3     1  UNL1       -0.3862
      2 N           4.5981    2.8450    0.0000 N.3     1  UNL1       -0.3251
      3 C           4.5981    1.8450    0.0000 C.3     1  UNL1        0.0319
      4 C           3.7320    1.3450    0.0000 C.3     1  UNL1        0.0885
      5 C           5.4641    1.3450    0.0000 C.3     1  UNL1       -0.0472
      6 C           3.7320    0.3450    0.0000 C.2     1  UNL1       -0.0539
      7 C           2.8660   -0.1550    0.0000 C.2     1  UNL1       -0.0561
      8 C           2.8660   -1.1550    0.0000 C.ar    1  UNL1       -0.0252
      9 C           2.0000   -1.6550    0.0000 C.ar    1  UNL1       -0.0546
     10 C           3.7320   -1.6550    0.0000 C.ar    1  UNL1       -0.0546
     11 C           2.0000   -2.6550    0.0000 C.ar    1  UNL1       -0.0612
     12 C           3.7320   -2.6550    0.0000 C.ar    1  UNL1       -0.0612
     13 C           2.8660   -3.1550    0.0000 C.ar    1  UNL1       -0.0617
     14 H           5.1350    2.1550    0.0000 H       1  UNL1        0.0484
     15 H           3.7320    1.9650    0.0000 H       1  UNL1        0.0653
     16 H           5.1541    0.8081    0.0000 H       1  UNL1        0.0246
     17 H           6.0010    1.0350    0.0000 H       1  UNL1        0.0246
     18 H           5.7741    1.8819    0.0000 H       1  UNL1        0.0246
     19 H           4.2690    0.0350    0.0000 H       1  UNL1        0.0598
     20 H           2.3291    0.1550    0.0000 H       1  UNL1        0.0621
     21 H           5.1350    3.1550    0.0000 H       1  UNL1        0.1185
     22 H           4.0611    3.1550    0.0000 H       1  UNL1        0.1185
     23 H           2.8660    2.4650    0.0000 H       1  UNL1        0.2103
     24 H           1.4631   -1.3450    0.0000 H       1  UNL1        0.0623
     25 H           4.2690   -1.3450    0.0000 H       1  UNL1        0.0623
     26 H           1.4631   -2.9650    0.0000 H       1  UNL1        0.0618
     27 H           4.2690   -2.9650    0.0000 H       1  UNL1        0.0618
     28 H           2.8660   -3.7750    0.0000 H       1  UNL1        0.0618
@<TRIPOS>BOND
     1     4     1    1
     2     1    23    1
     3     3     2    1
     4     2    21    1
     5     2    22    1
     6     3     4    1
     7     3     5    1
     8     3    14    1
     9     4     6    1
    10     4    15    1
    11     5    16    1
    12     5    17    1
    13     5    18    1
    14     6     7    2
    15     6    19    1
    16     7     8    1
    17     7    20    1
    18     8     9   ar
    19     8    10   ar
    20     9    11   ar
    21     9    24    1
    22    10    12   ar
    23    10    25    1
    24    11    13   ar
    25    11    26    1
    26    12    13   ar
    27    12    27    1
    28    13    28    1
