@<TRIPOS>MOLECULE
IMPHY009797
 64 66 0 0 0
SMALL
GASTEIGER

@<TRIPOS>ATOM
      1 O           6.8671   -0.3795    0.0000 O.3     1  UNL1       -0.3449
      2 O          11.2541    3.1046    0.0000 O.3     1  UNL1       -0.3888
      3 O           5.1350   -0.3795    0.0000 O.3     1  UNL1       -0.3405
      4 O           6.8671   -2.3795    0.0000 O.3     1  UNL1       -0.3841
      5 O           5.1350   -3.3795    0.0000 O.3     1  UNL1       -0.3864
      6 O           3.4030   -2.3795    0.0000 O.3     1  UNL1       -0.3865
      7 O           2.5369   -0.8795    0.0000 O.3     1  UNL1       -0.3924
      8 C           7.7671    1.1448    0.0000 C.3     1  UNL1        0.0008
      9 C           7.7787    2.1448    0.0000 C.3     1  UNL1       -0.0121
     10 C           8.6273    0.6348    0.0000 C.3     1  UNL1       -0.0444
     11 C           6.8671    0.6205    0.0000 C.3     1  UNL1        0.0680
     12 C           9.5106    2.1247    0.0000 C.3     1  UNL1       -0.0121
     13 C           8.6504    2.6347    0.0000 C.3     1  UNL1       -0.0405
     14 C           9.4991    1.1248    0.0000 C.3     1  UNL1       -0.0470
     15 C           6.8910    2.6897    0.0000 C.2     1  UNL1       -0.0728
     16 C           5.9670    1.1448    0.0000 C.3     1  UNL1       -0.0223
     17 C           7.7556    0.1449    0.0000 C.3     1  UNL1       -0.0567
     18 C           5.9790    2.1864    0.0000 C.3     1  UNL1       -0.0294
     19 C          10.3824    2.6147    0.0000 C.3     1  UNL1        0.0633
     20 C           6.0010   -0.8795    0.0000 C.3     1  UNL1        0.1882
     21 C          10.8723    1.7429    0.0000 C.3     1  UNL1       -0.0361
     22 C           9.8924    3.4864    0.0000 C.3     1  UNL1       -0.0361
     23 C           6.9141    3.6895    0.0000 C.2     1  UNL1       -0.0992
     24 C           6.0010   -1.8795    0.0000 C.3     1  UNL1        0.1341
     25 C           5.1350   -2.3795    0.0000 C.3     1  UNL1        0.1141
     26 C           4.2690   -0.8795    0.0000 C.3     1  UNL1        0.1130
     27 C           4.2690   -1.8795    0.0000 C.3     1  UNL1        0.1119
     28 C           3.4030   -0.3795    0.0000 C.3     1  UNL1        0.0730
     29 H           7.7951    2.9946    0.0000 H       1  UNL1        0.0352
     30 H           8.2233    0.1645    0.0000 H       1  UNL1        0.0272
     31 H           9.0203    0.1553    0.0000 H       1  UNL1        0.0272
     32 H           6.3295    0.3116    0.0000 H       1  UNL1        0.0603
     33 H          10.2418    1.6912    0.0000 H       1  UNL1        0.0328
     34 H           9.0544    3.1050    0.0000 H       1  UNL1        0.0275
     35 H           8.2574    3.1142    0.0000 H       1  UNL1        0.0275
     36 H           9.7044    0.5398    0.0000 H       1  UNL1        0.0269
     37 H          10.1108    1.2254    0.0000 H       1  UNL1        0.0269
     38 H           5.3574    1.2580    0.0000 H       1  UNL1        0.0293
     39 H           5.7512    0.5636    0.0000 H       1  UNL1        0.0293
     40 H           7.1356    0.1521    0.0000 H       1  UNL1        0.0236
     41 H           7.7484   -0.4751    0.0000 H       1  UNL1        0.0236
     42 H           8.3755    0.1377    0.0000 H       1  UNL1        0.0236
     43 H           5.7768    2.7725    0.0000 H       1  UNL1        0.0311
     44 H           5.3670    2.0874    0.0000 H       1  UNL1        0.0311
     45 H           6.0010   -0.2595    0.0000 H       1  UNL1        0.0937
     46 H          10.3318    1.4392    0.0000 H       1  UNL1        0.0257
     47 H          10.4329    3.7902    0.0000 H       1  UNL1        0.0257
     48 H           9.5886    4.0269    0.0000 H       1  UNL1        0.0257
     49 H           9.3519    3.1827    0.0000 H       1  UNL1        0.0257
     50 H          11.1761    1.2024    0.0000 H       1  UNL1        0.0257
     51 H          11.4128    2.0467    0.0000 H       1  UNL1        0.0257
     52 H           7.4581    3.9870    0.0000 H       1  UNL1        0.0534
     53 H           6.3845    4.0118    0.0000 H       1  UNL1        0.0534
     54 H           6.0010   -2.4995    0.0000 H       1  UNL1        0.0671
     55 H          11.7874    2.7884    0.0000 H       1  UNL1        0.2101
     56 H           4.5981   -2.6895    0.0000 H       1  UNL1        0.0648
     57 H           4.2690   -0.2595    0.0000 H       1  UNL1        0.0647
     58 H           3.7320   -1.5695    0.0000 H       1  UNL1        0.0647
     59 H           3.8015    0.0955    0.0000 H       1  UNL1        0.0584
     60 H           3.0044    0.0955    0.0000 H       1  UNL1        0.0584
     61 H           6.8671   -2.9995    0.0000 H       1  UNL1        0.2101
     62 H           4.5981   -3.6895    0.0000 H       1  UNL1        0.2100
     63 H           3.4030   -2.9995    0.0000 H       1  UNL1        0.2100
     64 H           2.0000   -0.5695    0.0000 H       1  UNL1        0.2095
@<TRIPOS>BOND
     1    11     1    1
     2    20     1    1
     3     2    19    1
     4     2    55    1
     5     3    20    1
     6     3    26    1
     7    24     4    1
     8     4    61    1
     9    25     5    1
    10     5    62    1
    11    27     6    1
    12     6    63    1
    13     7    28    1
    14     7    64    1
    15     8     9    1
    16     8    10    1
    17     8    11    1
    18     8    17    1
    19     9    13    1
    20     9    15    1
    21     9    29    1
    22    10    14    1
    23    10    30    1
    24    10    31    1
    25    11    16    1
    26    11    32    1
    27    12    13    1
    28    12    14    1
    29    12    19    1
    30    12    33    1
    31    13    34    1
    32    13    35    1
    33    14    36    1
    34    14    37    1
    35    15    18    1
    36    15    23    2
    37    16    18    1
    38    16    38    1
    39    16    39    1
    40    17    40    1
    41    17    41    1
    42    17    42    1
    43    18    43    1
    44    18    44    1
    45    19    21    1
    46    19    22    1
    47    20    24    1
    48    20    45    1
    49    21    46    1
    50    21    50    1
    51    21    51    1
    52    22    47    1
    53    22    48    1
    54    22    49    1
    55    23    52    1
    56    23    53    1
    57    24    25    1
    58    24    54    1
    59    25    27    1
    60    25    56    1
    61    26    27    1
    62    26    28    1
    63    26    57    1
    64    27    58    1
    65    28    59    1
    66    28    60    1
