@<TRIPOS>MOLECULE
IMPHY002157
 29 31 0 0 0
SMALL
GASTEIGER

@<TRIPOS>ATOM
      1 O           6.4144    1.8713    0.0000 O.3     1  UNL1       -0.5060
      2 O           4.6660    1.8367    0.0000 O.2     1  UNL1       -0.2864
      3 O           4.6660   -2.1633    0.0000 O.2     1  UNL1       -0.2866
      4 O           2.9176    1.8713    0.0000 O.3     1  UNL1       -0.5060
      5 O           9.0641   -0.6908    0.0000 O.3     1  UNL1       -0.4771
      6 O           8.1923   -2.1875    0.0000 O.2     1  UNL1       -0.2451
      7 C           5.5321    0.3367    0.0000 C.ar    1  UNL1        0.0746
      8 C           5.5321   -0.6633    0.0000 C.ar    1  UNL1        0.0374
      9 C           3.8000    0.3367    0.0000 C.ar    1  UNL1        0.0745
     10 C           3.8000   -0.6633    0.0000 C.ar    1  UNL1        0.0366
     11 C           4.6660    0.8367    0.0000 C.2     1  UNL1        0.2015
     12 C           4.6660   -1.1633    0.0000 C.2     1  UNL1        0.1948
     13 C           6.4260    0.8713    0.0000 C.ar    1  UNL1        0.1291
     14 C           6.4260   -1.1980    0.0000 C.ar    1  UNL1       -0.0360
     15 C           2.9061    0.8713    0.0000 C.ar    1  UNL1        0.1283
     16 C           7.3321   -0.6841    0.0000 C.ar    1  UNL1        0.0630
     17 C           2.9061   -1.1980    0.0000 C.ar    1  UNL1       -0.0500
     18 C           7.3321    0.3575    0.0000 C.ar    1  UNL1       -0.0055
     19 C           2.0000    0.3575    0.0000 C.ar    1  UNL1       -0.0194
     20 C           2.0000   -0.6841    0.0000 C.ar    1  UNL1       -0.0576
     21 C           8.1962   -1.1875    0.0000 C.2     1  UNL1        0.3369
     22 H           6.4188   -1.8179    0.0000 H       1  UNL1        0.0633
     23 H           2.9132   -1.8179    0.0000 H       1  UNL1        0.0625
     24 H           7.8678    0.6696    0.0000 H       1  UNL1        0.0662
     25 H           1.4643    0.6696    0.0000 H       1  UNL1        0.0654
     26 H           1.4643   -0.9962    0.0000 H       1  UNL1        0.0619
     27 H           6.9478    2.1875    0.0000 H       1  UNL1        0.2922
     28 H           2.3843    2.1875    0.0000 H       1  UNL1        0.2922
     29 H           9.5998   -1.0029    0.0000 H       1  UNL1        0.2954
@<TRIPOS>BOND
     1     1    13    1
     2     1    27    1
     3     2    11    2
     4     3    12    2
     5     4    15    1
     6     4    28    1
     7     5    21    1
     8     5    29    1
     9     6    21    2
    10     7     8   ar
    11     7    11    1
    12     7    13   ar
    13     8    12    1
    14     8    14   ar
    15     9    10   ar
    16     9    11    1
    17     9    15   ar
    18    10    12    1
    19    10    17   ar
    20    13    18   ar
    21    14    16   ar
    22    14    22    1
    23    15    19   ar
    24    16    18   ar
    25    16    21    1
    26    17    20   ar
    27    17    23    1
    28    18    24    1
    29    19    20   ar
    30    19    25    1
    31    20    26    1
