@<TRIPOS>MOLECULE
IMPHY011694
 19 18 0 0 0
SMALL
GASTEIGER

@<TRIPOS>ATOM
      1 O           2.5369    0.2500    0.0000 O.3     1  UNL1       -0.3910
      2 C           6.0010    0.2500    0.0000 C.3     1  UNL1       -0.0349
      3 C           6.8671   -0.2500    0.0000 C.3     1  UNL1       -0.0525
      4 C           5.1350   -0.2500    0.0000 C.2     1  UNL1       -0.0858
      5 C           7.7331    0.2500    0.0000 C.3     1  UNL1       -0.0650
      6 C           4.2690    0.2500    0.0000 C.2     1  UNL1       -0.0629
      7 C           3.4030   -0.2500    0.0000 C.3     1  UNL1        0.0624
      8 H           6.3996    0.7249    0.0000 H       1  UNL1        0.0307
      9 H           5.6025    0.7249    0.0000 H       1  UNL1        0.0307
     10 H           6.4685   -0.7249    0.0000 H       1  UNL1        0.0266
     11 H           7.2656   -0.7249    0.0000 H       1  UNL1        0.0266
     12 H           5.1350   -0.8700    0.0000 H       1  UNL1        0.0570
     13 H           8.0431   -0.2869    0.0000 H       1  UNL1        0.0230
     14 H           8.2700    0.5600    0.0000 H       1  UNL1        0.0230
     15 H           7.4231    0.7869    0.0000 H       1  UNL1        0.0230
     16 H           4.2690    0.8700    0.0000 H       1  UNL1        0.0591
     17 H           3.0044   -0.7249    0.0000 H       1  UNL1        0.0601
     18 H           3.8015   -0.7249    0.0000 H       1  UNL1        0.0601
     19 H           2.0000   -0.0600    0.0000 H       1  UNL1        0.2098
@<TRIPOS>BOND
     1     1     7    1
     2     1    19    1
     3     2     3    1
     4     2     4    1
     5     2     8    1
     6     2     9    1
     7     3     5    1
     8     3    10    1
     9     3    11    1
    10     4     6    2
    11     4    12    1
    12     5    13    1
    13     5    14    1
    14     5    15    1
    15     6     7    1
    16     6    16    1
    17     7    17    1
    18     7    18    1
