@<TRIPOS>MOLECULE
IMPHY008495
 81 85 0 0 0
SMALL
GASTEIGER

@<TRIPOS>ATOM
      1 O           7.8248   -0.3437    0.0000 O.3     1  UNL1       -0.3866
      2 O           4.6496   -2.3085    0.0000 O.3     1  UNL1       -0.3915
      3 O           8.8916    0.1658    0.0000 O.3     1  UNL1       -0.4675
      4 O           2.4968    1.6136    0.0000 O.3     1  UNL1       -0.4609
      5 O           8.8916   -1.3663    0.0000 O.2     1  UNL1       -0.2501
      6 O           2.8544   -1.2463    0.0000 O.3     1  UNL1       -0.3914
      7 O           2.5866    3.3223    0.0000 O.2     1  UNL1       -0.2456
      8 C           6.3980   -1.2739    0.0000 C.3     1  UNL1       -0.0079
      9 C           7.2641   -0.7739    0.0000 C.3     1  UNL1        0.1027
     10 C           5.5320   -0.7739    0.0000 C.3     1  UNL1       -0.0025
     11 C           5.5320    0.2261    0.0000 C.3     1  UNL1       -0.0194
     12 C           8.1741   -1.2807    0.0000 C.3     1  UNL1        0.0915
     13 C           8.1821   -2.3223    0.0000 C.3     1  UNL1        0.0015
     14 C           7.2641    0.2261    0.0000 C.3     1  UNL1       -0.0335
     15 C           6.3820   -2.3154    0.0000 C.3     1  UNL1       -0.0456
     16 C           4.6381    0.7608    0.0000 C.3     1  UNL1       -0.0055
     17 C           6.3980    0.7261    0.0000 C.3     1  UNL1       -0.0456
     18 C           4.6381   -1.3085    0.0000 C.3     1  UNL1        0.0598
     19 C           3.7320    0.2469    0.0000 C.3     1  UNL1        0.0396
     20 C           7.2800   -2.8431    0.0000 C.3     1  UNL1       -0.0442
     21 C           3.7320   -0.7947    0.0000 C.3     1  UNL1       -0.0149
     22 C           5.5320   -1.7739    0.0000 C.3     1  UNL1       -0.0581
     23 C           9.1009   -0.7166    0.0000 C.3     1  UNL1       -0.0014
     24 C           5.5320    1.2261    0.0000 C.3     1  UNL1       -0.0587
     25 C           8.2489   -0.6002    0.0000 C.2     1  UNL1        0.3164
     26 C           9.1175   -2.8721    0.0000 C.3     1  UNL1       -0.0264
     27 C           8.1898   -3.3223    0.0000 C.3     1  UNL1       -0.0566
     28 C           2.8622   -0.2464    0.0000 C.3     1  UNL1        0.0618
     29 C           2.7865    0.6339    0.0000 C.3     1  UNL1        0.1014
     30 C           4.7913    1.7708    0.0000 C.2     1  UNL1       -0.0729
     31 C          10.0488   -1.2446    0.0000 C.2     1  UNL1       -0.0738
     32 C          10.0571   -2.3295    0.0000 C.2     1  UNL1       -0.0843
     33 C           2.0000    0.2603    0.0000 C.3     1  UNL1       -0.0383
     34 C           4.0992    2.5223    0.0000 C.2     1  UNL1        0.0189
     35 C          10.9090   -0.7346    0.0000 C.3     1  UNL1       -0.0437
     36 C           3.0800    2.4524    0.0000 C.2     1  UNL1        0.3317
     37 C           9.8765   -0.0078    0.0000 C.3     1  UNL1        0.0817
     38 H           6.2681   -0.3489    0.0000 H       1  UNL1        0.0337
     39 H           7.8746    0.1185    0.0000 H       1  UNL1        0.0277
     40 H           7.4761    0.8087    0.0000 H       1  UNL1        0.0277
     41 H           5.7728   -2.1999    0.0000 H       1  UNL1        0.0271
     42 H           6.1639   -2.8958    0.0000 H       1  UNL1        0.0271
     43 H           5.4069    1.1233    0.0000 H       1  UNL1        0.0356
     44 H           6.7966    1.2011    0.0000 H       1  UNL1        0.0271
     45 H           5.9995    1.2011    0.0000 H       1  UNL1        0.0271
     46 H           5.1791   -1.6113    0.0000 H       1  UNL1        0.0596
     47 H           6.8790   -3.3160    0.0000 H       1  UNL1        0.0272
     48 H           7.6773   -3.3191    0.0000 H       1  UNL1        0.0272
     49 H           3.1211   -0.6886    0.0000 H       1  UNL1        0.0298
     50 H           3.5229   -1.3784    0.0000 H       1  UNL1        0.0298
     51 H           5.2220   -1.2369    0.0000 H       1  UNL1        0.0235
     52 H           4.9951   -2.0839    0.0000 H       1  UNL1        0.0235
     53 H           5.8420   -2.3108    0.0000 H       1  UNL1        0.0235
     54 H           9.4908   -0.2346    0.0000 H       1  UNL1        0.0338
     55 H           8.6927   -0.2500    0.0000 H       1  UNL1        0.0338
     56 H           6.1520    1.2261    0.0000 H       1  UNL1        0.0235
     57 H           5.5320    1.8461    0.0000 H       1  UNL1        0.0235
     58 H           4.9120    1.2261    0.0000 H       1  UNL1        0.0235
     59 H           8.7166   -3.3449    0.0000 H       1  UNL1        0.0314
     60 H           9.5148   -3.3480    0.0000 H       1  UNL1        0.0314
     61 H           7.5698   -3.3271    0.0000 H       1  UNL1        0.0236
     62 H           8.1946   -3.9423    0.0000 H       1  UNL1        0.0236
     63 H           8.8098   -3.3175    0.0000 H       1  UNL1        0.0236
     64 H           2.3228   -0.5522    0.0000 H       1  UNL1        0.0597
     65 H           2.1677    0.5954    0.0000 H       1  UNL1        0.0704
     66 H           2.6858    0.0221    0.0000 H       1  UNL1        0.0704
     67 H           5.3842    1.9522    0.0000 H       1  UNL1        0.0577
     68 H           8.0324    0.2405    0.0000 H       1  UNL1        0.2102
     69 H          10.5953   -2.6375    0.0000 H       1  UNL1        0.0572
     70 H           4.1163   -2.6247    0.0000 H       1  UNL1        0.2098
     71 H           2.3141    0.7948    0.0000 H       1  UNL1        0.0255
     72 H           1.4655    0.5744    0.0000 H       1  UNL1        0.0255
     73 H           1.6859   -0.2742    0.0000 H       1  UNL1        0.0255
     74 H           4.3286    3.0983    0.0000 H       1  UNL1        0.0686
     75 H          11.2252   -1.2679    0.0000 H       1  UNL1        0.0274
     76 H          11.4423   -0.4184    0.0000 H       1  UNL1        0.0274
     77 H          10.5928   -0.2013    0.0000 H       1  UNL1        0.0274
     78 H           2.3151   -1.5522    0.0000 H       1  UNL1        0.2098
     79 H           9.7688   -0.6184    0.0000 H       1  UNL1        0.0661
     80 H          10.4870   -0.1155    0.0000 H       1  UNL1        0.0661
     81 H           9.9841    0.6027    0.0000 H       1  UNL1        0.0661
@<TRIPOS>BOND
     1    12     1    1
     2     1    68    1
     3    18     2    1
     4     2    70    1
     5     3    25    1
     6     3    37    1
     7     4    29    1
     8     4    36    1
     9     5    25    2
    10    28     6    1
    11     6    78    1
    12     7    36    2
    13     8     9    1
    14     8    10    1
    15     8    15    1
    16     8    22    1
    17     9    12    1
    18     9    14    1
    19     9    25    1
    20    10    11    1
    21    10    18    1
    22    10    38    1
    23    11    16    1
    24    11    17    1
    25    11    24    1
    26    12    13    1
    27    12    23    1
    28    13    20    1
    29    13    26    1
    30    13    27    1
    31    14    17    1
    32    14    39    1
    33    14    40    1
    34    15    20    1
    35    15    41    1
    36    15    42    1
    37    16    19    1
    38    16    30    1
    39    16    43    1
    40    17    44    1
    41    17    45    1
    42    18    21    1
    43    18    46    1
    44    19    21    1
    45    19    28    1
    46    19    29    1
    47    20    47    1
    48    20    48    1
    49    21    49    1
    50    21    50    1
    51    22    51    1
    52    22    52    1
    53    22    53    1
    54    23    31    1
    55    23    54    1
    56    23    55    1
    57    24    56    1
    58    24    57    1
    59    24    58    1
    60    26    32    1
    61    26    59    1
    62    26    60    1
    63    27    61    1
    64    27    62    1
    65    27    63    1
    66    28    33    1
    67    28    64    1
    68    29    65    1
    69    29    66    1
    70    30    34    2
    71    30    67    1
    72    31    32    2
    73    31    35    1
    74    32    69    1
    75    33    71    1
    76    33    72    1
    77    33    73    1
    78    34    36    1
    79    34    74    1
    80    35    75    1
    81    35    76    1
    82    35    77    1
    83    37    79    1
    84    37    80    1
    85    37    81    1
