@<TRIPOS>MOLECULE
IMPHY013010
 51 53 0 0 0
SMALL
GASTEIGER

@<TRIPOS>ATOM
      1 O           6.3981   -1.9854    0.0000 O.2     1  UNL1       -0.2920
      2 O           3.7782    1.5461    0.0000 O.3     1  UNL1       -0.5031
      3 O           5.5442    2.5839    0.0000 O.3     1  UNL1       -0.5031
      4 C           3.8000   -1.4854    0.0000 C.3     1  UNL1       -0.0194
      5 C           3.8000   -0.4854    0.0000 C.3     1  UNL1        0.0009
      6 C           2.9061   -2.0200    0.0000 C.3     1  UNL1       -0.0309
      7 C           2.9061    0.0493    0.0000 C.3     1  UNL1       -0.0432
      8 C           2.0000   -1.5062    0.0000 C.3     1  UNL1       -0.0476
      9 C           2.0000   -0.4646    0.0000 C.3     1  UNL1       -0.0518
     10 C           4.6660   -1.9854    0.0000 C.3     1  UNL1        0.0146
     11 C           4.6660    0.0146    0.0000 C.ar    1  UNL1        0.0143
     12 C           3.8000    0.5146    0.0000 C.3     1  UNL1       -0.0551
     13 C           2.4161   -2.8918    0.0000 C.3     1  UNL1       -0.0595
     14 C           3.4160   -2.8802    0.0000 C.3     1  UNL1       -0.0595
     15 C           5.5321   -0.4854    0.0000 C.ar    1  UNL1        0.0251
     16 C           5.5321   -1.4854    0.0000 C.2     1  UNL1        0.1639
     17 C           4.6500    1.0561    0.0000 C.ar    1  UNL1        0.1630
     18 C           6.4421    0.0215    0.0000 C.ar    1  UNL1       -0.0439
     19 C           5.5480    1.5839    0.0000 C.ar    1  UNL1        0.1620
     20 C           6.4501    1.0631    0.0000 C.ar    1  UNL1        0.0009
     21 C           7.3180    1.5597    0.0000 C.3     1  UNL1       -0.0179
     22 C           8.1821    1.0564    0.0000 C.3     1  UNL1       -0.0585
     23 C           7.3219    2.5597    0.0000 C.3     1  UNL1       -0.0585
     24 H           3.8066   -2.3354    0.0000 H       1  UNL1        0.0319
     25 H           3.3107    0.5191    0.0000 H       1  UNL1        0.0274
     26 H           2.5124    0.5283    0.0000 H       1  UNL1        0.0274
     27 H           1.3891   -1.4001    0.0000 H       1  UNL1        0.0271
     28 H           1.7909   -2.0899    0.0000 H       1  UNL1        0.0271
     29 H           1.7909    0.1191    0.0000 H       1  UNL1        0.0266
     30 H           1.3891   -0.5707    0.0000 H       1  UNL1        0.0266
     31 H           4.2675   -2.4603    0.0000 H       1  UNL1        0.0348
     32 H           5.0646   -2.4603    0.0000 H       1  UNL1        0.0348
     33 H           4.4200    0.5146    0.0000 H       1  UNL1        0.0238
     34 H           3.8000    1.1346    0.0000 H       1  UNL1        0.0238
     35 H           3.1800    0.5146    0.0000 H       1  UNL1        0.0238
     36 H           1.8756   -2.5880    0.0000 H       1  UNL1        0.0235
     37 H           2.1123   -3.4323    0.0000 H       1  UNL1        0.0235
     38 H           2.9566   -3.1956    0.0000 H       1  UNL1        0.0235
     39 H           2.8827   -3.1964    0.0000 H       1  UNL1        0.0235
     40 H           3.7322   -3.4136    0.0000 H       1  UNL1        0.0235
     41 H           3.9494   -2.5640    0.0000 H       1  UNL1        0.0235
     42 H           6.9754   -0.2947    0.0000 H       1  UNL1        0.0629
     43 H           7.3156    0.9397    0.0000 H       1  UNL1        0.0345
     44 H           3.7711    2.1660    0.0000 H       1  UNL1        0.2923
     45 H           5.0060    2.8918    0.0000 H       1  UNL1        0.2923
     46 H           7.8701    0.5206    0.0000 H       1  UNL1        0.0235
     47 H           8.7179    0.7443    0.0000 H       1  UNL1        0.0235
     48 H           8.4942    1.5921    0.0000 H       1  UNL1        0.0235
     49 H           7.9419    2.5573    0.0000 H       1  UNL1        0.0235
     50 H           7.3243    3.1797    0.0000 H       1  UNL1        0.0235
     51 H           6.7019    2.5621    0.0000 H       1  UNL1        0.0235
@<TRIPOS>BOND
     1     1    16    2
     2     2    17    1
     3     2    44    1
     4     3    19    1
     5     3    45    1
     6     4     5    1
     7     4     6    1
     8     4    10    1
     9     4    24    1
    10     5     7    1
    11     5    11    1
    12     5    12    1
    13     6     8    1
    14     6    13    1
    15     6    14    1
    16     7     9    1
    17     7    25    1
    18     7    26    1
    19     8     9    1
    20     8    27    1
    21     8    28    1
    22     9    29    1
    23     9    30    1
    24    10    16    1
    25    10    31    1
    26    10    32    1
    27    11    15   ar
    28    11    17   ar
    29    12    33    1
    30    12    34    1
    31    12    35    1
    32    13    36    1
    33    13    37    1
    34    13    38    1
    35    14    39    1
    36    14    40    1
    37    14    41    1
    38    15    16    1
    39    15    18   ar
    40    17    19   ar
    41    18    20   ar
    42    18    42    1
    43    19    20   ar
    44    20    21    1
    45    21    22    1
    46    21    23    1
    47    21    43    1
    48    22    46    1
    49    22    47    1
    50    22    48    1
    51    23    49    1
    52    23    50    1
    53    23    51    1
