@<TRIPOS>MOLECULE
IMPHY006970
 31 30 0 0 0
SMALL
GASTEIGER

@<TRIPOS>ATOM
      1 O           2.0000    0.5600    0.0000 O.2     1  UNL1       -0.3010
      2 C           7.1962    0.5600    0.0000 C.3     1  UNL1       -0.0531
      3 C           6.3301    0.0600    0.0000 C.3     1  UNL1       -0.0530
      4 C           8.0622    0.0600    0.0000 C.3     1  UNL1       -0.0531
      5 C           5.4641    0.5600    0.0000 C.3     1  UNL1       -0.0527
      6 C           8.9282    0.5600    0.0000 C.3     1  UNL1       -0.0533
      7 C           4.5981    0.0600    0.0000 C.3     1  UNL1       -0.0466
      8 C           9.7942    0.0600    0.0000 C.3     1  UNL1       -0.0559
      9 C           3.7320    0.5600    0.0000 C.3     1  UNL1        0.0028
     10 C          10.6603    0.5600    0.0000 C.3     1  UNL1       -0.0653
     11 C           2.8660    0.0600    0.0000 C.2     1  UNL1        0.1203
     12 H           7.5947    1.0350    0.0000 H       1  UNL1        0.0265
     13 H           6.7976    1.0350    0.0000 H       1  UNL1        0.0265
     14 H           5.9316   -0.4149    0.0000 H       1  UNL1        0.0265
     15 H           6.7287   -0.4149    0.0000 H       1  UNL1        0.0265
     16 H           7.6636   -0.4149    0.0000 H       1  UNL1        0.0265
     17 H           8.4607   -0.4149    0.0000 H       1  UNL1        0.0265
     18 H           5.8626    1.0350    0.0000 H       1  UNL1        0.0265
     19 H           5.0656    1.0350    0.0000 H       1  UNL1        0.0265
     20 H           9.3267    1.0350    0.0000 H       1  UNL1        0.0265
     21 H           8.5297    1.0350    0.0000 H       1  UNL1        0.0265
     22 H           4.1996   -0.4149    0.0000 H       1  UNL1        0.0269
     23 H           4.9966   -0.4149    0.0000 H       1  UNL1        0.0269
     24 H           9.3957   -0.4149    0.0000 H       1  UNL1        0.0263
     25 H          10.1928   -0.4149    0.0000 H       1  UNL1        0.0263
     26 H           4.1306    1.0350    0.0000 H       1  UNL1        0.0339
     27 H           3.3335    1.0350    0.0000 H       1  UNL1        0.0339
     28 H          10.9703    0.0231    0.0000 H       1  UNL1        0.0230
     29 H          11.1972    0.8700    0.0000 H       1  UNL1        0.0230
     30 H          10.3503    1.0969    0.0000 H       1  UNL1        0.0230
     31 H           2.8660   -0.5600    0.0000 H       1  UNL1        0.1026
@<TRIPOS>BOND
     1     1    11    2
     2     2     3    1
     3     2     4    1
     4     2    12    1
     5     2    13    1
     6     3     5    1
     7     3    14    1
     8     3    15    1
     9     4     6    1
    10     4    16    1
    11     4    17    1
    12     5     7    1
    13     5    18    1
    14     5    19    1
    15     6     8    1
    16     6    20    1
    17     6    21    1
    18     7     9    1
    19     7    22    1
    20     7    23    1
    21     8    10    1
    22     8    24    1
    23     8    25    1
    24     9    11    1
    25     9    26    1
    26     9    27    1
    27    10    28    1
    28    10    29    1
    29    10    30    1
    30    11    31    1
