@<TRIPOS>MOLECULE
IMPHY017193
 29 29 0 0 0
SMALL
GASTEIGER

@<TRIPOS>ATOM
      1 O           4.6701    2.0352    0.0000 O.3     1  UNL1       -0.3886
      2 C           3.2733    0.6384    0.0000 C.3     1  UNL1       -0.0087
      3 C           4.0823    1.2262    0.0000 C.3     1  UNL1        0.0664
      4 C           3.5823   -0.3126    0.0000 C.3     1  UNL1       -0.0152
      5 C           4.8913    0.6384    0.0000 C.3     1  UNL1       -0.0234
      6 C           4.5823   -0.3126    0.0000 C.3     1  UNL1       -0.0436
      7 C           2.3222    0.9474    0.0000 C.3     1  UNL1       -0.0593
      8 C           3.4945    2.0352    0.0000 C.3     1  UNL1       -0.0358
      9 C           2.9945   -1.1217    0.0000 C.2     1  UNL1       -0.0763
     10 C           3.4013   -2.0352    0.0000 C.3     1  UNL1       -0.0438
     11 C           2.0000   -1.0171    0.0000 C.2     1  UNL1       -0.0994
     12 H           3.1403    1.4779    0.0000 H       1  UNL1        0.0331
     13 H           3.9682   -1.0700    0.0000 H       1  UNL1        0.0349
     14 H           5.4577    0.3862    0.0000 H       1  UNL1        0.0293
     15 H           5.2013    1.1753    0.0000 H       1  UNL1        0.0293
     16 H           4.5175   -0.9293    0.0000 H       1  UNL1        0.0272
     17 H           5.1888   -0.4416    0.0000 H       1  UNL1        0.0272
     18 H           2.5138    1.5371    0.0000 H       1  UNL1        0.0233
     19 H           1.7326    1.1390    0.0000 H       1  UNL1        0.0233
     20 H           2.1306    0.3578    0.0000 H       1  UNL1        0.0233
     21 H           3.9961    2.3996    0.0000 H       1  UNL1        0.0257
     22 H           3.1301    2.5368    0.0000 H       1  UNL1        0.0257
     23 H           2.9929    1.6708    0.0000 H       1  UNL1        0.0257
     24 H           5.2867    1.9704    0.0000 H       1  UNL1        0.2102
     25 H           2.8349   -2.2874    0.0000 H       1  UNL1        0.0274
     26 H           3.6534   -2.6016    0.0000 H       1  UNL1        0.0274
     27 H           3.9677   -1.7830    0.0000 H       1  UNL1        0.0274
     28 H           1.7478   -0.4507    0.0000 H       1  UNL1        0.0534
     29 H           1.6356   -1.5187    0.0000 H       1  UNL1        0.0534
@<TRIPOS>BOND
     1     1     3    1
     2     1    24    1
     3     2     3    1
     4     2     4    1
     5     2     7    1
     6     2    12    1
     7     3     5    1
     8     3     8    1
     9     4     6    1
    10     4     9    1
    11     4    13    1
    12     5     6    1
    13     5    14    1
    14     5    15    1
    15     6    16    1
    16     6    17    1
    17     7    18    1
    18     7    19    1
    19     7    20    1
    20     8    21    1
    21     8    22    1
    22     8    23    1
    23     9    10    1
    24     9    11    2
    25    10    25    1
    26    10    26    1
    27    10    27    1
    28    11    28    1
    29    11    29    1
