@<TRIPOS>MOLECULE
IMPHY008194
 11 10 0 0 0
SMALL
GASTEIGER

@<TRIPOS>ATOM
      1 S           2.8660    0.0000    0.0000 S.O2    1  UNL1       -0.0366
      2 O           3.7320    0.5000    0.0000 O.2     1  UNL1       -0.1749
      3 O           3.3660   -0.8660    0.0000 O.2     1  UNL1       -0.1749
      4 C           2.0000   -0.5000    0.0000 C.3     1  UNL1        0.0541
      5 C           2.3660    0.8660    0.0000 C.3     1  UNL1        0.0541
      6 H           1.6900    0.0369    0.0000 H       1  UNL1        0.0463
      7 H           1.4631   -0.8100    0.0000 H       1  UNL1        0.0463
      8 H           2.3100   -1.0369    0.0000 H       1  UNL1        0.0463
      9 H           2.9030    1.1760    0.0000 H       1  UNL1        0.0463
     10 H           2.0560    1.4030    0.0000 H       1  UNL1        0.0463
     11 H           1.8291    0.5560    0.0000 H       1  UNL1        0.0463
@<TRIPOS>BOND
     1     1     2    2
     2     1     3    2
     3     1     4    1
     4     1     5    1
     5     4     6    1
     6     4     7    1
     7     4     8    1
     8     5     9    1
     9     5    10    1
    10     5    11    1
