@<TRIPOS>MOLECULE
IMPHY008962
 58 63 0 0 0
SMALL
GASTEIGER

@<TRIPOS>ATOM
      1 O           5.9465    1.8005    0.0000 O.3     1  UNL1       -0.3353
      2 O           7.4260    1.6942    0.0000 O.3     1  UNL1       -0.4677
      3 O           8.8933    0.7739    0.0000 O.2     1  UNL1       -0.2505
      4 O           2.0000    0.3198    0.0000 O.3     1  UNL1       -0.4914
      5 O           2.0000   -1.5414    0.0000 O.3     1  UNL1       -0.4914
      6 N           6.8895    0.2659    0.0000 N.3     1  UNL1       -0.2661
      7 N           5.1766   -1.3075    0.0000 N.pl3   1  UNL1       -0.3029
      8 C           5.1766    0.0859    0.0000 C.3     1  UNL1        0.0620
      9 C           5.6828   -0.6108    0.0000 C.3     1  UNL1        0.1643
     10 C           6.5392   -0.5208    0.0000 C.3     1  UNL1        0.0604
     11 C           7.3627   -0.0367    0.0000 C.3     1  UNL1        0.0770
     12 C           6.3833    0.9626    0.0000 C.3     1  UNL1        0.1161
     13 C           5.5269    0.8726    0.0000 C.3     1  UNL1        0.0020
     14 C           7.9019   -1.1274    0.0000 C.3     1  UNL1       -0.0033
     15 C           7.0454   -1.2175    0.0000 C.3     1  UNL1       -0.0256
     16 C           4.3576   -0.1802    0.0000 C.ar    1  UNL1       -0.0111
     17 C           7.7460    0.3560    0.0000 C.3     1  UNL1        0.0231
     18 C           8.2521   -0.3407    0.0000 C.2     1  UNL1       -0.0557
     19 C           4.3576   -1.0414    0.0000 C.ar    1  UNL1        0.0392
     20 C           7.8940    0.8105    0.0000 C.2     1  UNL1        0.3115
     21 C           5.4856   -2.2585    0.0000 C.3     1  UNL1        0.0034
     22 C           3.6118    0.2504    0.0000 C.ar    1  UNL1       -0.0107
     23 C           3.6118   -1.4720    0.0000 C.ar    1  UNL1        0.0051
     24 C           9.2467   -0.2362    0.0000 C.2     1  UNL1       -0.0864
     25 C           2.8660   -0.1802    0.0000 C.ar    1  UNL1        0.1619
     26 C           2.8660   -1.0414    0.0000 C.ar    1  UNL1        0.1633
     27 C           9.8344   -1.0452    0.0000 C.3     1  UNL1       -0.0465
     28 C           7.9573    2.5414    0.0000 C.3     1  UNL1        0.0817
     29 C           2.0000    1.3198    0.0000 C.3     1  UNL1        0.0790
     30 C           2.0000   -2.5414    0.0000 C.3     1  UNL1        0.0790
     31 H           6.2871   -1.0872    0.0000 H       1  UNL1        0.0509
     32 H           7.0778    0.5140    0.0000 H       1  UNL1        0.0430
     33 H           7.1060    1.4101    0.0000 H       1  UNL1        0.0770
     34 H           5.5701    1.4911    0.0000 H       1  UNL1        0.0314
     35 H           4.9253    1.0226    0.0000 H       1  UNL1        0.0314
     36 H           8.4015   -1.8151    0.0000 H       1  UNL1        0.0355
     37 H           6.4882   -1.4893    0.0000 H       1  UNL1        0.0288
     38 H           7.2163   -1.8134    0.0000 H       1  UNL1        0.0288
     39 H           8.3032    0.6277    0.0000 H       1  UNL1        0.0473
     40 H           7.5751    0.9519    0.0000 H       1  UNL1        0.0473
     41 H           4.8960   -2.4501    0.0000 H       1  UNL1        0.0429
     42 H           5.6772   -2.8482    0.0000 H       1  UNL1        0.0429
     43 H           6.0753   -2.0670    0.0000 H       1  UNL1        0.0429
     44 H           3.6118    0.8704    0.0000 H       1  UNL1        0.0659
     45 H           3.6118   -2.0920    0.0000 H       1  UNL1        0.0674
     46 H           9.4988    0.3302    0.0000 H       1  UNL1        0.0569
     47 H           9.3328   -1.4097    0.0000 H       1  UNL1        0.0272
     48 H          10.1989   -1.5468    0.0000 H       1  UNL1        0.0272
     49 H          10.3360   -0.6808    0.0000 H       1  UNL1        0.0272
     50 H           8.4826    2.2119    0.0000 H       1  UNL1        0.0661
     51 H           8.2868    3.0666    0.0000 H       1  UNL1        0.0661
     52 H           7.4321    2.8708    0.0000 H       1  UNL1        0.0661
     53 H           2.6200    1.3198    0.0000 H       1  UNL1        0.0660
     54 H           2.0000    1.9398    0.0000 H       1  UNL1        0.0660
     55 H           1.3800    1.3198    0.0000 H       1  UNL1        0.0660
     56 H           1.3800   -2.5414    0.0000 H       1  UNL1        0.0660
     57 H           2.0000   -3.1614    0.0000 H       1  UNL1        0.0660
     58 H           2.6200   -2.5414    0.0000 H       1  UNL1        0.0660
@<TRIPOS>BOND
     1     1     9    1
     2     1    12    1
     3     2    20    1
     4     2    28    1
     5     3    20    2
     6     4    25    1
     7     4    29    1
     8     5    26    1
     9     5    30    1
    10     6    10    1
    11     6    12    1
    12     6    17    1
    13     7     9    1
    14     7    19    1
    15     7    21    1
    16     8     9    1
    17     8    11    1
    18     8    13    1
    19     8    16    1
    20     9    10    1
    21    10    15    1
    22    10    31    1
    23    11    14    1
    24    11    20    1
    25    11    32    1
    26    12    13    1
    27    12    33    1
    28    13    34    1
    29    13    35    1
    30    14    15    1
    31    14    18    1
    32    14    36    1
    33    15    37    1
    34    15    38    1
    35    16    19   ar
    36    16    22   ar
    37    17    18    1
    38    17    39    1
    39    17    40    1
    40    18    24    2
    41    19    23   ar
    42    21    41    1
    43    21    42    1
    44    21    43    1
    45    22    25   ar
    46    22    44    1
    47    23    26   ar
    48    23    45    1
    49    24    27    1
    50    24    46    1
    51    25    26   ar
    52    27    47    1
    53    27    48    1
    54    27    49    1
    55    28    50    1
    56    28    51    1
    57    28    52    1
    58    29    53    1
    59    29    54    1
    60    29    55    1
    61    30    56    1
    62    30    57    1
    63    30    58    1
