@<TRIPOS>MOLECULE
IMPHY014473
 87 93 0 0 0
SMALL
GASTEIGER

@<TRIPOS>ATOM
      1 O          11.2158    0.3218    0.0000 O.2     1  UNL1       -0.4699
      2 O          10.7982   -1.4375    0.0000 O.3     1  UNL1       -0.3093
      3 O           6.0010    0.6228    0.0000 O.3     1  UNL1       -0.3766
      4 O          10.1337    3.2974    0.0000 O.2     1  UNL1       -0.2702
      5 O          12.4466   -0.9057    0.0000 O.3     1  UNL1       -0.3404
      6 O           4.2690    0.6228    0.0000 O.3     1  UNL1       -0.3323
      7 O          11.4122   -3.3409    0.0000 O.3     1  UNL1       -0.3841
      8 O          13.3676   -3.7609    0.0000 O.3     1  UNL1       -0.3864
      9 O           6.0010   -1.3772    0.0000 O.3     1  UNL1       -0.3828
     10 O          14.7090   -2.2774    0.0000 O.3     1  UNL1       -0.3865
     11 O           4.2690   -2.3772    0.0000 O.3     1  UNL1       -0.3864
     12 O           2.5369   -1.3772    0.0000 O.3     1  UNL1       -0.3866
     13 O          15.0727   -0.5840    0.0000 O.3     1  UNL1       -0.3924
     14 N           8.4521    2.7445    0.0000 N.am    1  UNL1       -0.2888
     15 N           6.0010    1.6228    0.0000 N.ar    1  UNL1       -0.1811
     16 C           7.7843    2.0002    0.0000 C.3     1  UNL1        0.0707
     17 C           9.1101    0.7826    0.0000 C.3     1  UNL1        0.0059
     18 C           8.0926    1.0052    0.0000 C.3     1  UNL1       -0.0208
     19 C           9.4312   -0.2538    0.0000 C.3     1  UNL1        0.0466
     20 C           6.8058    2.2064    0.0000 C.ar    1  UNL1        0.0826
     21 C           9.8058    1.5578    0.0000 C.2     1  UNL1        0.0526
     22 C           8.1415    3.6950    0.0000 C.3     1  UNL1        0.0197
     23 C           6.4951    3.1569    0.0000 C.ar    1  UNL1       -0.0122
     24 C           7.1630    3.9012    0.0000 C.3     1  UNL1       -0.0094
     25 C           9.4746    2.5454    0.0000 C.2     1  UNL1        0.2464
     26 C          10.4912   -0.4857    0.0000 C.3     1  UNL1        0.2102
     27 C           5.5010    3.1526    0.0000 C.ar    1  UNL1        0.0068
     28 C           5.1963    2.2064    0.0000 C.ar    1  UNL1        0.0881
     29 C          10.8708    1.3505    0.0000 C.2     1  UNL1        0.0963
     30 C           8.7548   -0.9904    0.0000 C.2     1  UNL1       -0.0816
     31 C          11.7759   -1.6474    0.0000 C.3     1  UNL1        0.1918
     32 C           5.1350    0.1228    0.0000 C.3     1  UNL1        0.2553
     33 C          12.0829   -2.5992    0.0000 C.3     1  UNL1        0.1342
     34 C           4.8181    3.9309    0.0000 C.ar    1  UNL1       -0.0522
     35 C          13.0606   -2.8091    0.0000 C.3     1  UNL1        0.1141
     36 C           5.1350   -0.8772    0.0000 C.3     1  UNL1        0.1477
     37 C           4.1875    1.9729    0.0000 C.ar    1  UNL1       -0.0343
     38 C          13.7313   -2.0674    0.0000 C.3     1  UNL1        0.1119
     39 C          13.4243   -1.1157    0.0000 C.3     1  UNL1        0.1130
     40 C           4.2690   -1.3772    0.0000 C.3     1  UNL1        0.1152
     41 C           3.4030   -0.8772    0.0000 C.3     1  UNL1        0.1096
     42 C           3.4030    0.1228    0.0000 C.3     1  UNL1        0.0884
     43 C           9.0545   -1.9444    0.0000 C.2     1  UNL1       -0.1022
     44 C           3.8042    3.7208    0.0000 C.ar    1  UNL1       -0.0611
     45 C           3.4868    2.7352    0.0000 C.ar    1  UNL1       -0.0597
     46 C          14.0950   -0.3740    0.0000 C.3     1  UNL1        0.0730
     47 C           2.5369    0.6228    0.0000 C.3     1  UNL1       -0.0360
     48 H           7.2118    1.3719    0.0000 H       1  UNL1        0.0566
     49 H           8.5352    0.1565    0.0000 H       1  UNL1        0.0360
     50 H           7.4777    0.9258    0.0000 H       1  UNL1        0.0293
     51 H           8.0656    0.3858    0.0000 H       1  UNL1        0.0293
     52 H           9.6182   -0.8450    0.0000 H       1  UNL1        0.0410
     53 H           8.7553    3.7824    0.0000 H       1  UNL1        0.0468
     54 H           8.1620    4.3147    0.0000 H       1  UNL1        0.0468
     55 H           7.3942    4.4765    0.0000 H       1  UNL1        0.0329
     56 H           6.6366    4.2289    0.0000 H       1  UNL1        0.0329
     57 H          10.0744   -0.9448    0.0000 H       1  UNL1        0.1062
     58 H          11.2795    1.8167    0.0000 H       1  UNL1        0.1029
     59 H           8.1497   -0.8555    0.0000 H       1  UNL1        0.0571
     60 H          11.5855   -1.0574    0.0000 H       1  UNL1        0.0939
     61 H           5.1350    0.7428    0.0000 H       1  UNL1        0.1108
     62 H          11.4767   -2.4690    0.0000 H       1  UNL1        0.0671
     63 H           5.0150    4.5188    0.0000 H       1  UNL1        0.0624
     64 H          12.6447   -3.2690    0.0000 H       1  UNL1        0.0648
     65 H           5.6720   -0.5672    0.0000 H       1  UNL1        0.0684
     66 H           4.0043    1.3806    0.0000 H       1  UNL1        0.0639
     67 H          13.9216   -2.6575    0.0000 H       1  UNL1        0.0647
     68 H          13.2339   -0.5257    0.0000 H       1  UNL1        0.0647
     69 H           4.8059   -1.6872    0.0000 H       1  UNL1        0.0648
     70 H           2.8660   -0.5672    0.0000 H       1  UNL1        0.0646
     71 H           3.4030    0.7428    0.0000 H       1  UNL1        0.0621
     72 H           8.6351   -2.4010    0.0000 H       1  UNL1        0.0532
     73 H           9.6596   -2.0793    0.0000 H       1  UNL1        0.0532
     74 H           3.3899    4.1821    0.0000 H       1  UNL1        0.0618
     75 H           2.8812    2.6024    0.0000 H       1  UNL1        0.0618
     76 H          14.3285    0.2004    0.0000 H       1  UNL1        0.0584
     77 H          13.5699   -0.0443    0.0000 H       1  UNL1        0.0584
     78 H           2.8469    1.1597    0.0000 H       1  UNL1        0.0255
     79 H           2.0000    0.9328    0.0000 H       1  UNL1        0.0255
     80 H           2.2269    0.0859    0.0000 H       1  UNL1        0.0255
     81 H          11.6025   -3.9309    0.0000 H       1  UNL1        0.2101
     82 H          13.9737   -3.8910    0.0000 H       1  UNL1        0.2100
     83 H           6.0010   -1.9972    0.0000 H       1  UNL1        0.2102
     84 H          14.8993   -2.8675    0.0000 H       1  UNL1        0.2100
     85 H           3.7320   -2.6872    0.0000 H       1  UNL1        0.2100
     86 H           2.0000   -1.0672    0.0000 H       1  UNL1        0.2100
     87 H          15.4885   -0.1241    0.0000 H       1  UNL1        0.2095
@<TRIPOS>BOND
     1     1    26    1
     2     1    29    1
     3    26     2    1
     4    31     2    1
     5     3    15    1
     6    32     3    1
     7     4    25    2
     8     5    31    1
     9     5    39    1
    10     6    32    1
    11     6    42    1
    12    33     7    1
    13     7    81    1
    14    35     8    1
    15     8    82    1
    16    36     9    1
    17     9    83    1
    18    38    10    1
    19    10    84    1
    20    40    11    1
    21    11    85    1
    22    41    12    1
    23    12    86    1
    24    13    46    1
    25    13    87    1
    26    14    16    1
    27    14    22    1
    28    14    25   am
    29    15    20   ar
    30    15    28   ar
    31    16    18    1
    32    16    20    1
    33    16    48    1
    34    17    18    1
    35    17    19    1
    36    17    21    1
    37    17    49    1
    38    18    50    1
    39    18    51    1
    40    19    26    1
    41    19    30    1
    42    19    52    1
    43    20    23   ar
    44    21    25    1
    45    21    29    2
    46    22    24    1
    47    22    53    1
    48    22    54    1
    49    23    24    1
    50    23    27   ar
    51    24    55    1
    52    24    56    1
    53    26    57    1
    54    27    28   ar
    55    27    34   ar
    56    28    37   ar
    57    29    58    1
    58    30    43    2
    59    30    59    1
    60    31    33    1
    61    31    60    1
    62    32    36    1
    63    32    61    1
    64    33    35    1
    65    33    62    1
    66    34    44   ar
    67    34    63    1
    68    35    38    1
    69    35    64    1
    70    36    40    1
    71    36    65    1
    72    37    45   ar
    73    37    66    1
    74    38    39    1
    75    38    67    1
    76    39    46    1
    77    39    68    1
    78    40    41    1
    79    40    69    1
    80    41    42    1
    81    41    70    1
    82    42    47    1
    83    42    71    1
    84    43    72    1
    85    43    73    1
    86    44    45   ar
    87    44    74    1
    88    45    75    1
    89    46    76    1
    90    46    77    1
    91    47    78    1
    92    47    79    1
    93    47    80    1
