@<TRIPOS>MOLECULE
IMPHY005064
 44 47 0 0 0
SMALL
GASTEIGER

@<TRIPOS>ATOM
      1 O           8.0944    0.1717    0.0000 O.3     1  UNL1       -0.4851
      2 O           9.0283    1.4905    0.0000 O.3     1  UNL1       -0.3829
      3 O           9.6517    2.8614    0.0000 O.3     1  UNL1       -0.3921
      4 O           6.4144   -3.0845    0.0000 O.3     1  UNL1       -0.5059
      5 O           4.6660   -3.0499    0.0000 O.2     1  UNL1       -0.2864
      6 N           4.6660   -0.0499    0.0000 N.ar    1  UNL1       -0.3423
      7 C           7.6651    1.1140    0.0000 C.3     1  UNL1        0.1347
      8 C           6.6361    0.9987    0.0000 C.3     1  UNL1        0.0178
      9 C           8.1584    1.9838    0.0000 C.3     1  UNL1        0.1230
     10 C           6.4260   -0.0152    0.0000 C.ar    1  UNL1        0.0222
     11 C           7.3321   -0.5291    0.0000 C.ar    1  UNL1        0.1298
     12 C           5.5321   -0.5499    0.0000 C.ar    1  UNL1        0.0633
     13 C           8.6518    2.8537    0.0000 C.3     1  UNL1        0.0762
     14 C           5.5321   -1.5499    0.0000 C.ar    1  UNL1        0.0876
     15 C           7.2886    2.4771    0.0000 C.3     1  UNL1       -0.0304
     16 C           7.3321   -1.5707    0.0000 C.ar    1  UNL1        0.0227
     17 C           6.4260   -2.0846    0.0000 C.ar    1  UNL1        0.1331
     18 C           3.8000   -0.5499    0.0000 C.ar    1  UNL1        0.0529
     19 C           4.6660   -2.0499    0.0000 C.ar    1  UNL1        0.2006
     20 C           3.8000   -1.5499    0.0000 C.ar    1  UNL1        0.0459
     21 C           4.6660    0.9501    0.0000 C.3     1  UNL1        0.0124
     22 C           2.9061   -0.0152    0.0000 C.ar    1  UNL1       -0.0375
     23 C           2.9061   -2.0846    0.0000 C.ar    1  UNL1       -0.0489
     24 C           2.0000   -0.5291    0.0000 C.ar    1  UNL1       -0.0598
     25 C           2.0000   -1.5707    0.0000 C.ar    1  UNL1       -0.0610
     26 H           8.2845    1.0865    0.0000 H       1  UNL1        0.0766
     27 H           6.6322    1.6187    0.0000 H       1  UNL1        0.0352
     28 H           6.0191    1.0600    0.0000 H       1  UNL1        0.0352
     29 H           8.7547    3.4651    0.0000 H       1  UNL1        0.0587
     30 H           8.0675    3.0612    0.0000 H       1  UNL1        0.0587
     31 H           7.5944    3.0164    0.0000 H       1  UNL1        0.0259
     32 H           6.7493    2.7830    0.0000 H       1  UNL1        0.0259
     33 H           6.9827    1.9378    0.0000 H       1  UNL1        0.0259
     34 H           7.8678   -1.8828    0.0000 H       1  UNL1        0.0691
     35 H           9.5628    1.8046    0.0000 H       1  UNL1        0.2104
     36 H           5.2860    0.9501    0.0000 H       1  UNL1        0.0456
     37 H           4.6660    1.5701    0.0000 H       1  UNL1        0.0456
     38 H           4.0460    0.9501    0.0000 H       1  UNL1        0.0456
     39 H           2.9132    0.6047    0.0000 H       1  UNL1        0.0638
     40 H           2.9132   -2.7045    0.0000 H       1  UNL1        0.0625
     41 H           9.9576    3.4007    0.0000 H       1  UNL1        0.2095
     42 H           6.9478   -3.4007    0.0000 H       1  UNL1        0.2922
     43 H           1.4643   -0.2170    0.0000 H       1  UNL1        0.0618
     44 H           1.4643   -1.8828    0.0000 H       1  UNL1        0.0618
@<TRIPOS>BOND
     1     1     7    1
     2     1    11    1
     3     2     9    1
     4     2    35    1
     5     3    13    1
     6     3    41    1
     7     4    17    1
     8     4    42    1
     9     5    19    2
    10     6    12   ar
    11     6    18   ar
    12     6    21    1
    13     7     8    1
    14     7     9    1
    15     7    26    1
    16     8    10    1
    17     8    27    1
    18     8    28    1
    19     9    13    1
    20     9    15    1
    21    10    11   ar
    22    10    12   ar
    23    11    16   ar
    24    12    14   ar
    25    13    29    1
    26    13    30    1
    27    14    17   ar
    28    14    19   ar
    29    15    31    1
    30    15    32    1
    31    15    33    1
    32    16    17   ar
    33    16    34    1
    34    18    20   ar
    35    18    22   ar
    36    19    20   ar
    37    20    23   ar
    38    21    36    1
    39    21    37    1
    40    21    38    1
    41    22    24   ar
    42    22    39    1
    43    23    25   ar
    44    23    40    1
    45    24    25   ar
    46    24    43    1
    47    25    44    1
