@<TRIPOS>MOLECULE
IMPHY005589
 95 98 0 0 0
SMALL
GASTEIGER

@<TRIPOS>ATOM
      1 O           6.4004    0.8376    0.0000 O.3     1  UNL1       -0.4534
      2 O           5.4554    1.2991    0.0000 O.3     1  UNL1       -0.4537
      3 O           6.1826    3.9058    0.0000 O.3     1  UNL1       -0.3869
      4 O           8.1080    6.0105    0.0000 O.3     1  UNL1       -0.3797
      5 O           7.3871   -0.5859    0.0000 O.2     1  UNL1       -0.2508
      6 O           7.2845    6.9938    0.0000 O.2     1  UNL1       -0.2893
      7 O          10.7631    3.9363    0.0000 O.3     1  UNL1       -0.3907
      8 O           4.4852    2.7339    0.0000 O.2     1  UNL1       -0.2453
      9 C           8.0784    2.0007    0.0000 C.3     1  UNL1        0.0209
     10 C           7.2223    1.4073    0.0000 C.3     1  UNL1        0.1598
     11 C           8.1645    0.9621    0.0000 C.3     1  UNL1        0.0161
     12 C           7.9845    3.0381    0.0000 C.3     1  UNL1        0.0145
     13 C           6.2838    1.8592    0.0000 C.3     1  UNL1        0.1488
     14 C           7.0835    3.4719    0.0000 C.3     1  UNL1        0.0880
     15 C           6.2140    2.8985    0.0000 C.3     1  UNL1        0.0272
     16 C           9.1611    1.0446    0.0000 C.3     1  UNL1       -0.0556
     17 C           7.7376    0.0579    0.0000 C.3     1  UNL1       -0.0556
     18 C           6.8610    4.4469    0.0000 C.3     1  UNL1        0.0439
     19 C           8.8855    3.4719    0.0000 C.2     1  UNL1       -0.0763
     20 C           7.4845    5.2287    0.0000 C.3     1  UNL1        0.1403
     21 C           5.2160    2.8353    0.0000 C.3     1  UNL1       -0.0562
     22 C           9.1080    4.4469    0.0000 C.2     1  UNL1       -0.0449
     23 C           8.4845    5.2287    0.0000 C.3     1  UNL1        0.0073
     24 C           5.9312    4.7986    0.0000 C.2     1  UNL1       -0.0687
     25 C           6.4828   -0.1590    0.0000 C.2     1  UNL1        0.3077
     26 C           6.9347    6.0569    0.0000 C.2     1  UNL1        0.1909
     27 C           5.9767    5.7916    0.0000 C.2     1  UNL1       -0.0086
     28 C           4.5561    1.7364    0.0000 C.2     1  UNL1        0.3350
     29 C          10.0829    4.6694    0.0000 C.3     1  UNL1        0.0654
     30 C           5.6609   -0.7287    0.0000 C.3     1  UNL1        0.0450
     31 C           5.1949    6.4151    0.0000 C.3     1  UNL1       -0.0366
     32 C           3.7277    1.1763    0.0000 C.2     1  UNL1        0.0293
     33 C           5.7434   -1.7253    0.0000 C.3     1  UNL1       -0.0430
     34 C           4.9215   -2.2949    0.0000 C.3     1  UNL1       -0.0526
     35 C           3.7986    0.1788    0.0000 C.3     1  UNL1       -0.0333
     36 C           2.8284    1.6137    0.0000 C.2     1  UNL1       -0.0774
     37 C           5.0039   -3.2915    0.0000 C.3     1  UNL1       -0.0530
     38 C           2.0000    1.0535    0.0000 C.3     1  UNL1       -0.0461
     39 C           4.1820   -3.8612    0.0000 C.3     1  UNL1       -0.0531
     40 C           4.2644   -4.8578    0.0000 C.3     1  UNL1       -0.0531
     41 C           3.4426   -5.4275    0.0000 C.3     1  UNL1       -0.0533
     42 C           3.5250   -6.4241    0.0000 C.3     1  UNL1       -0.0559
     43 C           2.7031   -6.9938    0.0000 C.3     1  UNL1       -0.0653
     44 H           8.9252    2.0741    0.0000 H       1  UNL1        0.0354
     45 H           8.7239    2.6188    0.0000 H       1  UNL1        0.0375
     46 H           5.7268    2.1315    0.0000 H       1  UNL1        0.0778
     47 H           6.0171    3.4864    0.0000 H       1  UNL1        0.0363
     48 H           9.2122    0.4267    0.0000 H       1  UNL1        0.0236
     49 H           9.7790    1.0956    0.0000 H       1  UNL1        0.0236
     50 H           9.1100    1.6624    0.0000 H       1  UNL1        0.0236
     51 H           7.1769    0.3225    0.0000 H       1  UNL1        0.0236
     52 H           7.4729   -0.5028    0.0000 H       1  UNL1        0.0236
     53 H           8.2982   -0.2068    0.0000 H       1  UNL1        0.0236
     54 H           7.6897    4.2577    0.0000 H       1  UNL1        0.0404
     55 H           9.3702    3.0854    0.0000 H       1  UNL1        0.0576
     56 H           5.1768    3.4541    0.0000 H       1  UNL1        0.0234
     57 H           4.5972    2.7961    0.0000 H       1  UNL1        0.0234
     58 H           5.2551    2.2165    0.0000 H       1  UNL1        0.0234
     59 H           5.5643    3.8595    0.0000 H       1  UNL1        0.2102
     60 H           9.0431    5.4977    0.0000 H       1  UNL1        0.0343
     61 H           8.3466    5.8332    0.0000 H       1  UNL1        0.0343
     62 H           5.4132    4.4579    0.0000 H       1  UNL1        0.0580
     63 H           8.7211    5.9181    0.0000 H       1  UNL1        0.2108
     64 H          10.6037    5.0058    0.0000 H       1  UNL1        0.0604
     65 H           9.8421    5.2407    0.0000 H       1  UNL1        0.0604
     66 H           5.4016   -0.1655    0.0000 H       1  UNL1        0.0377
     67 H           5.0613   -0.8863    0.0000 H       1  UNL1        0.0377
     68 H           5.5814    6.8998    0.0000 H       1  UNL1        0.0279
     69 H           4.7101    6.8017    0.0000 H       1  UNL1        0.0279
     70 H           4.8083    5.9304    0.0000 H       1  UNL1        0.0279
     71 H           6.0027   -2.2884    0.0000 H       1  UNL1        0.0270
     72 H           6.3430   -1.5676    0.0000 H       1  UNL1        0.0270
     73 H          11.3676    4.0743    0.0000 H       1  UNL1        0.2098
     74 H           4.6621   -1.7318    0.0000 H       1  UNL1        0.0265
     75 H           4.3219   -2.4526    0.0000 H       1  UNL1        0.0265
     76 H           3.1801    0.1349    0.0000 H       1  UNL1        0.0280
     77 H           3.8425   -0.4396    0.0000 H       1  UNL1        0.0280
     78 H           4.4170    0.2228    0.0000 H       1  UNL1        0.0280
     79 H           2.7844    2.2321    0.0000 H       1  UNL1        0.0574
     80 H           5.2632   -3.8547    0.0000 H       1  UNL1        0.0265
     81 H           5.6035   -3.1339    0.0000 H       1  UNL1        0.0265
     82 H           1.6527    1.5672    0.0000 H       1  UNL1        0.0272
     83 H           1.4864    0.7063    0.0000 H       1  UNL1        0.0272
     84 H           2.3473    0.5399    0.0000 H       1  UNL1        0.0272
     85 H           3.9227   -3.2981    0.0000 H       1  UNL1        0.0265
     86 H           3.5824   -4.0188    0.0000 H       1  UNL1        0.0265
     87 H           4.5238   -5.4210    0.0000 H       1  UNL1        0.0265
     88 H           4.8641   -4.7002    0.0000 H       1  UNL1        0.0265
     89 H           3.1832   -4.8643    0.0000 H       1  UNL1        0.0265
     90 H           2.8429   -5.5851    0.0000 H       1  UNL1        0.0265
     91 H           3.7843   -6.9872    0.0000 H       1  UNL1        0.0263
     92 H           4.1246   -6.2665    0.0000 H       1  UNL1        0.0263
     93 H           2.3499   -6.4842    0.0000 H       1  UNL1        0.0230
     94 H           2.1936   -7.3470    0.0000 H       1  UNL1        0.0230
     95 H           3.0563   -7.5033    0.0000 H       1  UNL1        0.0230
@<TRIPOS>BOND
     1    10     1    1
     2     1    25    1
     3    13     2    1
     4     2    28    1
     5    14     3    1
     6     3    59    1
     7    20     4    1
     8     4    63    1
     9     5    25    2
    10     6    26    2
    11     7    29    1
    12     7    73    1
    13     8    28    2
    14     9    10    1
    15     9    11    1
    16     9    12    1
    17     9    44    1
    18    10    11    1
    19    10    13    1
    20    11    16    1
    21    11    17    1
    22    12    14    1
    23    12    19    1
    24    12    45    1
    25    13    15    1
    26    13    46    1
    27    14    15    1
    28    14    18    1
    29    15    21    1
    30    15    47    1
    31    16    48    1
    32    16    49    1
    33    16    50    1
    34    17    51    1
    35    17    52    1
    36    17    53    1
    37    18    20    1
    38    18    24    1
    39    18    54    1
    40    19    22    2
    41    19    55    1
    42    20    23    1
    43    20    26    1
    44    21    56    1
    45    21    57    1
    46    21    58    1
    47    22    23    1
    48    22    29    1
    49    23    60    1
    50    23    61    1
    51    24    27    2
    52    24    62    1
    53    25    30    1
    54    26    27    1
    55    27    31    1
    56    28    32    1
    57    29    64    1
    58    29    65    1
    59    30    33    1
    60    30    66    1
    61    30    67    1
    62    31    68    1
    63    31    69    1
    64    31    70    1
    65    32    35    1
    66    32    36    2
    67    33    34    1
    68    33    71    1
    69    33    72    1
    70    34    37    1
    71    34    74    1
    72    34    75    1
    73    35    76    1
    74    35    77    1
    75    35    78    1
    76    36    38    1
    77    36    79    1
    78    37    39    1
    79    37    80    1
    80    37    81    1
    81    38    82    1
    82    38    83    1
    83    38    84    1
    84    39    40    1
    85    39    85    1
    86    39    86    1
    87    40    41    1
    88    40    87    1
    89    40    88    1
    90    41    42    1
    91    41    89    1
    92    41    90    1
    93    42    43    1
    94    42    91    1
    95    42    92    1
    96    43    93    1
    97    43    94    1
    98    43    95    1
