@<TRIPOS>MOLECULE
IMPHY016858
 23 22 0 0 0
SMALL
GASTEIGER

@<TRIPOS>ATOM
      1 O           3.7320    0.5670    0.0000 O.3     1  UNL1       -0.4589
      2 O           4.5981   -0.9330    0.0000 O.2     1  UNL1       -0.2508
      3 C           2.8660    0.0670    0.0000 C.3     1  UNL1        0.1052
      4 C           2.0000   -0.4330    0.0000 C.3     1  UNL1       -0.0254
      5 C           2.3660    0.9330    0.0000 C.3     1  UNL1       -0.0254
      6 C           3.3660   -0.7990    0.0000 C.3     1  UNL1       -0.0254
      7 C           4.5981    0.0670    0.0000 C.2     1  UNL1        0.3073
      8 C           5.4641    0.5670    0.0000 C.3     1  UNL1        0.0421
      9 C           6.3301    0.0670    0.0000 C.3     1  UNL1       -0.0552
     10 H           1.6900    0.1039    0.0000 H       1  UNL1        0.0268
     11 H           1.4631   -0.7430    0.0000 H       1  UNL1        0.0268
     12 H           2.3100   -0.9699    0.0000 H       1  UNL1        0.0268
     13 H           2.9030    1.2430    0.0000 H       1  UNL1        0.0268
     14 H           2.0560    1.4700    0.0000 H       1  UNL1        0.0268
     15 H           1.8291    0.6230    0.0000 H       1  UNL1        0.0268
     16 H           2.8291   -1.1090    0.0000 H       1  UNL1        0.0268
     17 H           3.6760   -1.3360    0.0000 H       1  UNL1        0.0268
     18 H           3.9030   -0.4890    0.0000 H       1  UNL1        0.0268
     19 H           5.8626    1.0419    0.0000 H       1  UNL1        0.0375
     20 H           5.0656    1.0419    0.0000 H       1  UNL1        0.0375
     21 H           6.0201   -0.4699    0.0000 H       1  UNL1        0.0235
     22 H           6.8671   -0.2430    0.0000 H       1  UNL1        0.0235
     23 H           6.6401    0.6039    0.0000 H       1  UNL1        0.0235
@<TRIPOS>BOND
     1     1     3    1
     2     1     7    1
     3     2     7    2
     4     3     4    1
     5     3     5    1
     6     3     6    1
     7     4    10    1
     8     4    11    1
     9     4    12    1
    10     5    13    1
    11     5    14    1
    12     5    15    1
    13     6    16    1
    14     6    17    1
    15     6    18    1
    16     7     8    1
    17     8     9    1
    18     8    19    1
    19     8    20    1
    20     9    21    1
    21     9    22    1
    22     9    23    1
