@<TRIPOS>MOLECULE
IMPHY007849
 85 91 0 0 0
SMALL
GASTEIGER

@<TRIPOS>ATOM
      1 O           6.8775    1.2758    0.0000 O.3     1  UNL1       -0.4482
      2 O           7.4265    3.7303    0.0000 O.3     1  UNL1       -0.4885
      3 O           8.6366    4.2918    0.0000 O.3     1  UNL1       -0.4913
      4 O           6.3452    3.7214    0.0000 O.3     1  UNL1       -0.4914
      5 O           5.6049   -2.9296    0.0000 O.3     1  UNL1       -0.4523
      6 O           7.1774   -4.1713    0.0000 O.3     1  UNL1       -0.4914
      7 N           9.5048   -0.2166    0.0000 N.3     1  UNL1       -0.2977
      8 N           2.5369    1.7770    0.0000 N.3     1  UNL1       -0.3087
      9 C           8.6366    0.2846    0.0000 C.3     1  UNL1        0.0432
     10 C           8.6366    1.2870    0.0000 C.ar    1  UNL1        0.0193
     11 C          10.3729    0.2846    0.0000 C.3     1  UNL1        0.0032
     12 C           9.5048    1.7882    0.0000 C.ar    1  UNL1       -0.0343
     13 C          10.3729    1.2870    0.0000 C.3     1  UNL1       -0.0143
     14 C           7.7685   -0.2166    0.0000 C.3     1  UNL1       -0.0076
     15 C           7.7685    1.7882    0.0000 C.ar    1  UNL1        0.1786
     16 C           3.4050    1.2758    0.0000 C.3     1  UNL1        0.0372
     17 C           4.2732    1.7770    0.0000 C.ar    1  UNL1       -0.0233
     18 C           9.5048   -1.2166    0.0000 C.3     1  UNL1       -0.0122
     19 C           9.5048    2.7906    0.0000 C.ar    1  UNL1       -0.0125
     20 C           4.2732    2.7795    0.0000 C.ar    1  UNL1       -0.0378
     21 C           7.6140   -1.1983    0.0000 C.ar    1  UNL1       -0.0419
     22 C           3.4050    3.2807    0.0000 C.3     1  UNL1       -0.0147
     23 C           2.5369    2.7795    0.0000 C.3     1  UNL1        0.0004
     24 C           7.7685    2.7906    0.0000 C.ar    1  UNL1        0.2045
     25 C           3.4050    0.2734    0.0000 C.3     1  UNL1       -0.0081
     26 C           8.6366    3.2918    0.0000 C.ar    1  UNL1        0.1655
     27 C           6.0094    1.7770    0.0000 C.ar    1  UNL1        0.1703
     28 C           5.1413    1.2758    0.0000 C.ar    1  UNL1       -0.0107
     29 C           5.1413    3.2807    0.0000 C.ar    1  UNL1       -0.0128
     30 C           6.0094    2.7795    0.0000 C.ar    1  UNL1        0.1624
     31 C           3.9133   -0.5074    0.0000 C.ar    1  UNL1       -0.0453
     32 C           6.6823   -1.5681    0.0000 C.ar    1  UNL1       -0.0124
     33 C           8.4001   -1.8204    0.0000 C.ar    1  UNL1       -0.0548
     34 C           6.5366   -2.5598    0.0000 C.ar    1  UNL1        0.1701
     35 C           8.2544   -2.8121    0.0000 C.ar    1  UNL1       -0.0160
     36 C           4.9148   -0.4635    0.0000 C.ar    1  UNL1       -0.0550
     37 C           3.4506   -1.3966    0.0000 C.ar    1  UNL1       -0.0550
     38 C           7.3227   -3.1819    0.0000 C.ar    1  UNL1        0.1621
     39 C           4.9907   -2.1981    0.0000 C.ar    1  UNL1        0.1286
     40 C           5.4535   -1.3088    0.0000 C.ar    1  UNL1       -0.0191
     41 C           3.9893   -2.2419    0.0000 C.ar    1  UNL1       -0.0191
     42 C           8.0693    4.4963    0.0000 C.3     1  UNL1        0.0791
     43 C           9.5027    4.7918    0.0000 C.3     1  UNL1        0.0790
     44 C           5.6973    4.4832    0.0000 C.3     1  UNL1        0.0790
     45 C           7.9615   -4.7918    0.0000 C.3     1  UNL1        0.0790
     46 H           8.6366   -0.5654    0.0000 H       1  UNL1        0.0516
     47 H          10.5849   -0.2980    0.0000 H       1  UNL1        0.0430
     48 H          10.9834    0.3922    0.0000 H       1  UNL1        0.0430
     49 H          10.9834    1.1793    0.0000 H       1  UNL1        0.0326
     50 H          10.5849    1.8696    0.0000 H       1  UNL1        0.0326
     51 H           7.5871    0.3762    0.0000 H       1  UNL1        0.0332
     52 H           7.1501   -0.2603    0.0000 H       1  UNL1        0.0332
     53 H           2.6689    0.8508    0.0000 H       1  UNL1        0.0513
     54 H           8.8848   -1.2166    0.0000 H       1  UNL1        0.0391
     55 H           9.5048   -1.8366    0.0000 H       1  UNL1        0.0391
     56 H          10.1248   -1.2166    0.0000 H       1  UNL1        0.0391
     57 H          10.0417    3.1006    0.0000 H       1  UNL1        0.0658
     58 H           3.8036    3.7556    0.0000 H       1  UNL1        0.0326
     59 H           3.0065    3.7556    0.0000 H       1  UNL1        0.0326
     60 H           2.3249    3.3621    0.0000 H       1  UNL1        0.0427
     61 H           1.9264    2.6718    0.0000 H       1  UNL1        0.0427
     62 H           2.8188    0.4751    0.0000 H       1  UNL1        0.0332
     63 H           3.9994    0.4498    0.0000 H       1  UNL1        0.0332
     64 H           2.0000    1.4670    0.0000 H       1  UNL1        0.1225
     65 H           5.1413    0.6558    0.0000 H       1  UNL1        0.0659
     66 H           5.1413    3.9007    0.0000 H       1  UNL1        0.0658
     67 H           6.1961   -1.1833    0.0000 H       1  UNL1        0.0658
     68 H           8.9764   -1.5917    0.0000 H       1  UNL1        0.0621
     69 H           8.7406   -3.1969    0.0000 H       1  UNL1        0.0655
     70 H           5.2010    0.0865    0.0000 H       1  UNL1        0.0621
     71 H           2.8312   -1.4237    0.0000 H       1  UNL1        0.0621
     72 H           6.0729   -1.2817    0.0000 H       1  UNL1        0.0654
     73 H           3.7030   -2.7919    0.0000 H       1  UNL1        0.0654
     74 H           8.5443    4.0978    0.0000 H       1  UNL1        0.0660
     75 H           8.4678    4.9713    0.0000 H       1  UNL1        0.0660
     76 H           7.5944    4.8949    0.0000 H       1  UNL1        0.0660
     77 H           9.8127    4.2549    0.0000 H       1  UNL1        0.0660
     78 H          10.0396    5.1018    0.0000 H       1  UNL1        0.0660
     79 H           9.1927    5.3287    0.0000 H       1  UNL1        0.0660
     80 H           6.1696    4.8848    0.0000 H       1  UNL1        0.0660
     81 H           5.2956    4.9555    0.0000 H       1  UNL1        0.0660
     82 H           5.2250    4.0815    0.0000 H       1  UNL1        0.0660
     83 H           7.5768   -5.2780    0.0000 H       1  UNL1        0.0660
     84 H           8.4477   -5.1765    0.0000 H       1  UNL1        0.0660
     85 H           8.3463   -4.3056    0.0000 H       1  UNL1        0.0660
@<TRIPOS>BOND
     1     1    15    1
     2     1    27    1
     3     2    24    1
     4     2    42    1
     5     3    26    1
     6     3    43    1
     7     4    30    1
     8     4    44    1
     9     5    34    1
    10     5    39    1
    11     6    38    1
    12     6    45    1
    13     7     9    1
    14     7    11    1
    15     7    18    1
    16     8    16    1
    17     8    23    1
    18     8    64    1
    19     9    10    1
    20     9    14    1
    21     9    46    1
    22    10    12   ar
    23    10    15   ar
    24    11    13    1
    25    11    47    1
    26    11    48    1
    27    12    13    1
    28    12    19   ar
    29    13    49    1
    30    13    50    1
    31    14    21    1
    32    14    51    1
    33    14    52    1
    34    15    24   ar
    35    16    17    1
    36    16    25    1
    37    16    53    1
    38    17    20   ar
    39    17    28   ar
    40    18    54    1
    41    18    55    1
    42    18    56    1
    43    19    26   ar
    44    19    57    1
    45    20    22    1
    46    20    29   ar
    47    21    32   ar
    48    21    33   ar
    49    22    23    1
    50    22    58    1
    51    22    59    1
    52    23    60    1
    53    23    61    1
    54    24    26   ar
    55    25    31    1
    56    25    62    1
    57    25    63    1
    58    27    28   ar
    59    27    30   ar
    60    28    65    1
    61    29    30   ar
    62    29    66    1
    63    31    36   ar
    64    31    37   ar
    65    32    34   ar
    66    32    67    1
    67    33    35   ar
    68    33    68    1
    69    34    38   ar
    70    35    38   ar
    71    35    69    1
    72    36    40   ar
    73    36    70    1
    74    37    41   ar
    75    37    71    1
    76    39    40   ar
    77    39    41   ar
    78    40    72    1
    79    41    73    1
    80    42    74    1
    81    42    75    1
    82    42    76    1
    83    43    77    1
    84    43    78    1
    85    43    79    1
    86    44    80    1
    87    44    81    1
    88    44    82    1
    89    45    83    1
    90    45    84    1
    91    45    85    1
