@<TRIPOS>MOLECULE
IMPHY001039
 82 86 0 0 0
SMALL
GASTEIGER

@<TRIPOS>ATOM
      1 O           7.7731   -1.2836    0.0000 O.3     1  UNL1       -0.3302
      2 O           5.1370    1.1932    0.0000 O.3     1  UNL1       -0.3313
      3 O           9.5052   -1.2836    0.0000 O.3     1  UNL1       -0.4515
      4 O           6.8689    1.2133    0.0000 O.3     1  UNL1       -0.4598
      5 O           6.0410   -3.2836    0.0000 O.3     1  UNL1       -0.3864
      6 O           7.7731   -4.2836    0.0000 O.3     1  UNL1       -0.3864
      7 O           9.5052   -3.2836    0.0000 O.3     1  UNL1       -0.3829
      8 O           5.1023    4.1931    0.0000 O.3     1  UNL1       -0.3864
      9 O           3.3819    3.1731    0.0000 O.3     1  UNL1       -0.3865
     10 O           6.8458    3.2131    0.0000 O.3     1  UNL1       -0.3829
     11 O           5.1750   -1.7836    0.0000 O.3     1  UNL1       -0.4621
     12 O           2.5333    1.6632    0.0000 O.3     1  UNL1       -0.3924
     13 O          10.3712    1.2164    0.0000 O.2     1  UNL1       -0.1997
     14 O           8.6270    4.2857    0.0000 O.3     1  UNL1       -0.5063
     15 O           4.3090   -0.2836    0.0000 O.2     1  UNL1       -0.2512
     16 O          13.8353    0.2164    0.0000 O.3     1  UNL1       -0.4914
     17 O          13.8353   -1.7836    0.0000 O.3     1  UNL1       -0.5033
     18 C           6.9071   -2.7836    0.0000 C.3     1  UNL1        0.1130
     19 C           7.7731   -3.2836    0.0000 C.3     1  UNL1        0.1152
     20 C           6.9071   -1.7836    0.0000 C.3     1  UNL1        0.1250
     21 C           8.6391   -2.7836    0.0000 C.3     1  UNL1        0.1454
     22 C           5.1139    3.1931    0.0000 C.3     1  UNL1        0.1152
     23 C           4.2537    2.6831    0.0000 C.3     1  UNL1        0.1120
     24 C           5.9856    2.7032    0.0000 C.3     1  UNL1        0.1454
     25 C           4.2652    1.6832    0.0000 C.3     1  UNL1        0.1140
     26 C           8.6391   -1.7836    0.0000 C.3     1  UNL1        0.2313
     27 C           5.9972    1.7032    0.0000 C.3     1  UNL1        0.2308
     28 C           6.0410   -1.2836    0.0000 C.3     1  UNL1        0.1212
     29 C           3.4051    1.1732    0.0000 C.3     1  UNL1        0.0731
     30 C           9.5052   -0.2836    0.0000 C.ar    1  UNL1        0.2288
     31 C           7.7291    1.7232    0.0000 C.ar    1  UNL1        0.1437
     32 C           8.6391    1.2164    0.0000 C.ar    1  UNL1        0.1245
     33 C           8.6391    0.2164    0.0000 C.ar    1  UNL1        0.0093
     34 C          10.3712    0.2164    0.0000 C.ar    1  UNL1        0.4046
     35 C           9.5052    1.7164    0.0000 C.ar    1  UNL1        0.3708
     36 C           7.7211    2.7648    0.0000 C.ar    1  UNL1        0.0229
     37 C           9.5212    2.7579    0.0000 C.ar    1  UNL1        0.0847
     38 C           8.6232    3.2857    0.0000 C.ar    1  UNL1        0.1293
     39 C          11.2372   -0.2836    0.0000 C.ar    1  UNL1        0.0865
     40 C           4.3090   -1.2836    0.0000 C.2     1  UNL1        0.3040
     41 C          12.1032    0.2164    0.0000 C.ar    1  UNL1       -0.0001
     42 C          11.2372   -1.2836    0.0000 C.ar    1  UNL1       -0.0418
     43 C           3.4430   -1.7836    0.0000 C.3     1  UNL1        0.0332
     44 C          12.9692   -0.2836    0.0000 C.ar    1  UNL1        0.1621
     45 C          12.1032   -1.7836    0.0000 C.ar    1  UNL1       -0.0157
     46 C          12.9692   -1.2836    0.0000 C.ar    1  UNL1        0.1585
     47 C          13.8353    1.2164    0.0000 C.3     1  UNL1        0.0790
     48 H           6.9071   -3.4036    0.0000 H       1  UNL1        0.0647
     49 H           8.3100   -3.5936    0.0000 H       1  UNL1        0.0648
     50 H           6.9071   -1.1636    0.0000 H       1  UNL1        0.0658
     51 H           9.1761   -2.4736    0.0000 H       1  UNL1        0.0683
     52 H           5.6472    3.5093    0.0000 H       1  UNL1        0.0648
     53 H           3.7204    2.3669    0.0000 H       1  UNL1        0.0647
     54 H           6.5261    2.3994    0.0000 H       1  UNL1        0.0683
     55 H           4.2724    1.0632    0.0000 H       1  UNL1        0.0647
     56 H           8.6391   -1.1636    0.0000 H       1  UNL1        0.1084
     57 H           6.0043    1.0833    0.0000 H       1  UNL1        0.1084
     58 H           6.4396   -0.8086    0.0000 H       1  UNL1        0.0724
     59 H           5.6425   -0.8086    0.0000 H       1  UNL1        0.0724
     60 H           3.0120    0.6937    0.0000 H       1  UNL1        0.0584
     61 H           3.8091    0.7029    0.0000 H       1  UNL1        0.0584
     62 H           6.0410   -3.9036    0.0000 H       1  UNL1        0.2100
     63 H           7.2362   -4.5936    0.0000 H       1  UNL1        0.2100
     64 H           9.5052   -3.9036    0.0000 H       1  UNL1        0.2102
     65 H           4.5618    4.4968    0.0000 H       1  UNL1        0.2100
     66 H           3.3748    3.7930    0.0000 H       1  UNL1        0.2100
     67 H           6.8386    3.8331    0.0000 H       1  UNL1        0.2102
     68 H           8.1022   -0.0936    0.0000 H       1  UNL1        0.0667
     69 H           2.0000    1.3470    0.0000 H       1  UNL1        0.2095
     70 H           7.1830    3.0728    0.0000 H       1  UNL1        0.0691
     71 H          10.0617    3.0617    0.0000 H       1  UNL1        0.0749
     72 H          12.1032    0.8364    0.0000 H       1  UNL1        0.0664
     73 H          10.7003   -1.5936    0.0000 H       1  UNL1        0.0628
     74 H           3.1330   -1.2467    0.0000 H       1  UNL1        0.0342
     75 H           2.9060   -2.0936    0.0000 H       1  UNL1        0.0342
     76 H           3.7530   -2.3205    0.0000 H       1  UNL1        0.0342
     77 H           9.1652    4.5936    0.0000 H       1  UNL1        0.2921
     78 H          12.1032   -2.4036    0.0000 H       1  UNL1        0.0655
     79 H          13.8353   -2.4036    0.0000 H       1  UNL1        0.2923
     80 H          14.4553    1.2164    0.0000 H       1  UNL1        0.0660
     81 H          13.8353    1.8364    0.0000 H       1  UNL1        0.0660
     82 H          13.2153    1.2164    0.0000 H       1  UNL1        0.0660
@<TRIPOS>UNITY_ATOM_ATTR
13 1
charge 1
@<TRIPOS>BOND
     1     1    20    1
     2     1    26    1
     3     2    25    1
     4     2    27    1
     5    26     3    1
     6     3    30    1
     7    27     4    1
     8     4    31    1
     9    18     5    1
    10     5    62    1
    11     6    19    1
    12     6    63    1
    13     7    21    1
    14     7    64    1
    15    22     8    1
    16     8    65    1
    17    23     9    1
    18     9    66    1
    19    10    24    1
    20    10    67    1
    21    11    28    1
    22    11    40    1
    23    12    29    1
    24    12    69    1
    25    13    34   ar
    26    13    35   ar
    27    14    38    1
    28    14    77    1
    29    15    40    2
    30    16    44    1
    31    16    47    1
    32    17    46    1
    33    17    79    1
    34    18    19    1
    35    18    20    1
    36    18    48    1
    37    19    21    1
    38    19    49    1
    39    20    28    1
    40    20    50    1
    41    21    26    1
    42    21    51    1
    43    22    23    1
    44    22    24    1
    45    22    52    1
    46    23    25    1
    47    23    53    1
    48    24    27    1
    49    24    54    1
    50    25    29    1
    51    25    55    1
    52    26    56    1
    53    27    57    1
    54    28    58    1
    55    28    59    1
    56    29    60    1
    57    29    61    1
    58    30    33   ar
    59    30    34   ar
    60    31    32   ar
    61    31    36   ar
    62    32    33   ar
    63    32    35   ar
    64    33    68    1
    65    34    39    1
    66    35    37   ar
    67    36    38   ar
    68    36    70    1
    69    37    38   ar
    70    37    71    1
    71    39    41   ar
    72    39    42   ar
    73    40    43    1
    74    41    44   ar
    75    41    72    1
    76    42    45   ar
    77    42    73    1
    78    43    74    1
    79    43    75    1
    80    43    76    1
    81    44    46   ar
    82    45    46   ar
    83    45    78    1
    84    47    80    1
    85    47    81    1
    86    47    82    1
