@<TRIPOS>MOLECULE
IMPHY007411
 56 58 0 0 0
SMALL
GASTEIGER

@<TRIPOS>ATOM
      1 O           6.7722   -4.3438    0.0000 O.3     1  UNL1       -0.4773
      2 O           5.0403   -4.3238    0.0000 O.2     1  UNL1       -0.2455
      3 O           2.4612    2.8815    0.0000 O.3     1  UNL1       -0.4281
      4 O           2.0000    1.1602    0.0000 O.2     1  UNL1       -0.2452
      5 O           3.4318    4.3760    0.0000 O.3     1  UNL1       -0.3416
      6 C           4.1636   -0.7993    0.0000 C.3     1  UNL1       -0.0256
      7 C           5.0297   -1.2993    0.0000 C.3     1  UNL1       -0.0255
      8 C           5.0297   -2.2993    0.0000 C.3     1  UNL1        0.0027
      9 C           3.2976   -1.2993    0.0000 C.3     1  UNL1       -0.0382
     10 C           4.1636   -2.7993    0.0000 C.3     1  UNL1       -0.0429
     11 C           3.2976   -2.2993    0.0000 C.3     1  UNL1       -0.0492
     12 C           5.9236   -0.7646    0.0000 C.3     1  UNL1       -0.0454
     13 C           3.6636    0.0668    0.0000 C.3     1  UNL1       -0.0429
     14 C           5.9236   -2.8339    0.0000 C.2     1  UNL1        0.0387
     15 C           4.6636    0.0668    0.0000 C.3     1  UNL1       -0.0590
     16 C           5.0297   -3.2993    0.0000 C.3     1  UNL1       -0.0551
     17 C           6.8297   -1.2784    0.0000 C.3     1  UNL1       -0.0337
     18 C           2.4316   -0.7993    0.0000 C.3     1  UNL1       -0.0619
     19 C           6.8297   -2.3201    0.0000 C.2     1  UNL1       -0.0735
     20 C           4.1636    0.9328    0.0000 C.3     1  UNL1       -0.0205
     21 C           5.9121   -3.8339    0.0000 C.2     1  UNL1        0.3330
     22 C           3.6636    1.7988    0.0000 C.2     1  UNL1        0.0386
     23 C           4.0704    2.7124    0.0000 C.2     1  UNL1       -0.0064
     24 C           2.6691    1.9033    0.0000 C.2     1  UNL1        0.3374
     25 C           3.3272    3.3815    0.0000 C.3     1  UNL1        0.2254
     26 C           2.6228    4.9638    0.0000 C.3     1  UNL1        0.0408
     27 H           5.0231   -0.4493    0.0000 H       1  UNL1        0.0315
     28 H           2.7607   -1.6093    0.0000 H       1  UNL1        0.0303
     29 H           3.7651   -3.2742    0.0000 H       1  UNL1        0.0274
     30 H           4.5622   -3.2742    0.0000 H       1  UNL1        0.0274
     31 H           2.6870   -2.1916    0.0000 H       1  UNL1        0.0268
     32 H           3.0856   -2.8819    0.0000 H       1  UNL1        0.0268
     33 H           6.3172   -0.2856    0.0000 H       1  UNL1        0.0271
     34 H           5.5190   -0.2948    0.0000 H       1  UNL1        0.0271
     35 H           3.1887    0.4653    0.0000 H       1  UNL1        0.0274
     36 H           3.1887   -0.3318    0.0000 H       1  UNL1        0.0274
     37 H           5.2006   -0.2432    0.0000 H       1  UNL1        0.0235
     38 H           4.9736    0.6037    0.0000 H       1  UNL1        0.0235
     39 H           4.1267    0.3768    0.0000 H       1  UNL1        0.0235
     40 H           4.4097   -3.2993    0.0000 H       1  UNL1        0.0238
     41 H           5.0297   -3.9193    0.0000 H       1  UNL1        0.0238
     42 H           5.6497   -3.2993    0.0000 H       1  UNL1        0.0238
     43 H           7.4405   -1.3845    0.0000 H       1  UNL1        0.0308
     44 H           7.0387   -0.6948    0.0000 H       1  UNL1        0.0308
     45 H           2.7416   -0.2623    0.0000 H       1  UNL1        0.0233
     46 H           1.8947   -0.4893    0.0000 H       1  UNL1        0.0233
     47 H           2.1216   -1.3362    0.0000 H       1  UNL1        0.0233
     48 H           7.3654   -2.6322    0.0000 H       1  UNL1        0.0577
     49 H           4.6386    0.5343    0.0000 H       1  UNL1        0.0315
     50 H           4.6386    1.3313    0.0000 H       1  UNL1        0.0315
     51 H           4.6768    2.8413    0.0000 H       1  UNL1        0.0638
     52 H           6.7651   -4.9638    0.0000 H       1  UNL1        0.2954
     53 H           2.8073    3.7192    0.0000 H       1  UNL1        0.1107
     54 H           2.9872    5.4654    0.0000 H       1  UNL1        0.0525
     55 H           2.1212    5.3282    0.0000 H       1  UNL1        0.0525
     56 H           2.2583    4.4622    0.0000 H       1  UNL1        0.0525
@<TRIPOS>BOND
     1     1    21    1
     2     1    52    1
     3     2    21    2
     4     3    24    1
     5     3    25    1
     6     4    24    2
     7     5    25    1
     8     5    26    1
     9     6     7    1
    10     6     9    1
    11     6    13    1
    12     6    15    1
    13     7     8    1
    14     7    12    1
    15     7    27    1
    16     8    10    1
    17     8    14    1
    18     8    16    1
    19     9    11    1
    20     9    18    1
    21     9    28    1
    22    10    11    1
    23    10    29    1
    24    10    30    1
    25    11    31    1
    26    11    32    1
    27    12    17    1
    28    12    33    1
    29    12    34    1
    30    13    20    1
    31    13    35    1
    32    13    36    1
    33    14    19    2
    34    14    21    1
    35    15    37    1
    36    15    38    1
    37    15    39    1
    38    16    40    1
    39    16    41    1
    40    16    42    1
    41    17    19    1
    42    17    43    1
    43    17    44    1
    44    18    45    1
    45    18    46    1
    46    18    47    1
    47    19    48    1
    48    20    22    1
    49    20    49    1
    50    20    50    1
    51    22    23    2
    52    22    24    1
    53    23    25    1
    54    23    51    1
    55    25    53    1
    56    26    54    1
    57    26    55    1
    58    26    56    1
