@<TRIPOS>MOLECULE
IMPHY009793
 36 39 0 0 0
SMALL
GASTEIGER

@<TRIPOS>ATOM
      1 O           2.9182   -0.4420    0.0000 O.3     1  UNL1       -0.4908
      2 O           2.6884   -2.4774    0.0000 O.3     1  UNL1       -0.4914
      3 O           7.1518    2.6727    0.0000 O.2     1  UNL1       -0.2838
      4 O           5.4874    3.4715    0.0000 O.2     1  UNL1       -0.2838
      5 N           7.1527   -1.1611    0.0000 N.ar    1  UNL1       -0.3601
      6 C           5.4874   -1.2179    0.0000 C.ar    1  UNL1        0.0175
      7 C           4.6784   -0.6302    0.0000 C.ar    1  UNL1        0.0377
      8 C           6.2964   -0.6302    0.0000 C.ar    1  UNL1        0.0556
      9 C           4.9874    0.3209    0.0000 C.ar    1  UNL1       -0.0043
     10 C           5.9874    0.3209    0.0000 C.ar    1  UNL1        0.0105
     11 C           5.3945   -2.2554    0.0000 C.ar    1  UNL1       -0.0103
     12 C           3.7204   -1.0391    0.0000 C.ar    1  UNL1        0.1698
     13 C           4.4462   -2.6864    0.0000 C.ar    1  UNL1       -0.0084
     14 C           3.6035   -2.0742    0.0000 C.ar    1  UNL1        0.1627
     15 C           6.2981   -2.7011    0.0000 C.ar    1  UNL1       -0.0379
     16 C           4.3810    1.0918    0.0000 C.2     1  UNL1       -0.0495
     17 C           6.5937    1.0918    0.0000 C.2     1  UNL1       -0.0014
     18 C           7.1535   -2.1687    0.0000 C.ar    1  UNL1        0.0027
     19 C           4.6031    2.0471    0.0000 C.2     1  UNL1       -0.0105
     20 C           6.3716    2.0471    0.0000 C.2     1  UNL1        0.2259
     21 C           5.4874    2.4715    0.0000 C.2     1  UNL1        0.2253
     22 C           2.0000   -0.8382    0.0000 C.3     1  UNL1        0.0790
     23 C           2.5800   -3.4715    0.0000 C.3     1  UNL1        0.0790
     24 H           7.6943   -0.8594    0.0000 H       1  UNL1        0.1654
     25 H           4.3838   -3.3033    0.0000 H       1  UNL1        0.0661
     26 H           6.3286   -3.3203    0.0000 H       1  UNL1        0.0638
     27 H           3.7758    0.9571    0.0000 H       1  UNL1        0.0625
     28 H           7.1989    0.9571    0.0000 H       1  UNL1        0.0664
     29 H           7.6956   -2.4695    0.0000 H       1  UNL1        0.0807
     30 H           4.1194    2.4350    0.0000 H       1  UNL1        0.0657
     31 H           1.7544   -0.2689    0.0000 H       1  UNL1        0.0660
     32 H           1.4307   -1.0838    0.0000 H       1  UNL1        0.0660
     33 H           2.2456   -1.4074    0.0000 H       1  UNL1        0.0660
     34 H           1.9637   -3.4043    0.0000 H       1  UNL1        0.0660
     35 H           2.5128   -4.0878    0.0000 H       1  UNL1        0.0660
     36 H           3.1964   -3.5387    0.0000 H       1  UNL1        0.0660
@<TRIPOS>BOND
     1     1    12    1
     2     1    22    1
     3     2    14    1
     4     2    23    1
     5     3    20    2
     6     4    21    2
     7     5     8   ar
     8     5    18   ar
     9     5    24    1
    10     6     7   ar
    11     6     8    2
    12     6    11   ar
    13     7     9   ar
    14     7    12   ar
    15     8    10   ar
    16     9    10   ar
    17     9    16    1
    18    10    17    2
    19    11    13   ar
    20    11    15   ar
    21    12    14   ar
    22    13    14   ar
    23    13    25    1
    24    15    18   ar
    25    15    26    1
    26    16    19    2
    27    16    27    1
    28    17    20    1
    29    17    28    1
    30    18    29    1
    31    19    21    1
    32    19    30    1
    33    20    21    1
    34    22    31    1
    35    22    32    1
    36    22    33    1
    37    23    34    1
    38    23    35    1
    39    23    36    1
