@<TRIPOS>MOLECULE
IMPHY009092
 47 50 0 0 0
SMALL
GASTEIGER

@<TRIPOS>ATOM
      1 O           3.5836   -3.4354    0.0000 O.3     1  UNL1       -0.4877
      2 O           5.3798   -0.5891    0.0000 O.2     1  UNL1       -0.4504
      3 O           7.1279   -3.6306    0.0000 O.3     1  UNL1       -0.5058
      4 O           8.0479   -0.0855    0.0000 O.3     1  UNL1       -0.4883
      5 O           8.0321   -2.1338    0.0000 O.2     1  UNL1       -0.2830
      6 O           6.2624    3.9386    0.0000 O.3     1  UNL1       -0.5068
      7 C           3.5836   -1.8259    0.0000 C.3     1  UNL1        0.0337
      8 C           3.0000   -2.6306    0.0000 C.3     1  UNL1        0.1067
      9 C           4.5298   -2.1306    0.0000 C.ar    1  UNL1        0.0465
     10 C           4.5298   -3.1306    0.0000 C.ar    1  UNL1        0.1317
     11 C           2.7736   -1.2395    0.0000 C.3     1  UNL1       -0.0522
     12 C           3.8910   -0.8743    0.0000 C.3     1  UNL1       -0.0522
     13 C           5.3958   -1.6306    0.0000 C.ar    1  UNL1        0.1503
     14 C           2.0000   -2.6306    0.0000 C.3     1  UNL1       -0.0270
     15 C           6.2619   -2.1306    0.0000 C.ar    1  UNL1        0.1095
     16 C           5.3958   -3.6306    0.0000 C.ar    1  UNL1        0.0228
     17 C           6.2619   -3.1306    0.0000 C.ar    1  UNL1        0.1348
     18 C           7.1719   -1.6238    0.0000 C.ar    1  UNL1        0.2381
     19 C           6.2778   -0.0614    0.0000 C.ar    1  UNL1        0.1808
     20 C           7.1799   -0.5822    0.0000 C.ar    1  UNL1        0.2107
     21 C           6.2740    0.9386    0.0000 C.ar    1  UNL1        0.0213
     22 C           7.1381    1.4419    0.0000 C.ar    1  UNL1       -0.0475
     23 C           5.4060    1.4353    0.0000 C.ar    1  UNL1       -0.0475
     24 C           8.9119   -0.5889    0.0000 C.3     1  UNL1        0.0791
     25 C           7.1342    2.4419    0.0000 C.ar    1  UNL1       -0.0195
     26 C           5.4022    2.4353    0.0000 C.ar    1  UNL1       -0.0195
     27 C           6.2663    2.9386    0.0000 C.ar    1  UNL1        0.1169
     28 H           2.7183   -3.1830    0.0000 H       1  UNL1        0.0739
     29 H           3.1371   -0.7373    0.0000 H       1  UNL1        0.0239
     30 H           2.2714   -0.8760    0.0000 H       1  UNL1        0.0239
     31 H           2.4100   -1.7418    0.0000 H       1  UNL1        0.0239
     32 H           4.4810   -1.0649    0.0000 H       1  UNL1        0.0239
     33 H           4.0816   -0.2843    0.0000 H       1  UNL1        0.0239
     34 H           3.3010   -0.6838    0.0000 H       1  UNL1        0.0239
     35 H           2.0000   -2.0106    0.0000 H       1  UNL1        0.0265
     36 H           1.3800   -2.6306    0.0000 H       1  UNL1        0.0265
     37 H           2.0000   -3.2506    0.0000 H       1  UNL1        0.0265
     38 H           5.3958   -4.2506    0.0000 H       1  UNL1        0.0691
     39 H           7.1279   -4.2506    0.0000 H       1  UNL1        0.2922
     40 H           7.6762    1.1340    0.0000 H       1  UNL1        0.0626
     41 H           4.8703    1.1232    0.0000 H       1  UNL1        0.0626
     42 H           7.6700    2.7540    0.0000 H       1  UNL1        0.0654
     43 H           4.8640    2.7432    0.0000 H       1  UNL1        0.0654
     44 H           8.5999   -1.1246    0.0000 H       1  UNL1        0.0660
     45 H           9.4477   -0.9009    0.0000 H       1  UNL1        0.0660
     46 H           9.2240   -0.0531    0.0000 H       1  UNL1        0.0660
     47 H           6.7982    4.2506    0.0000 H       1  UNL1        0.2921
@<TRIPOS>BOND
     1     1     8    1
     2     1    10    1
     3     2    13   ar
     4     2    19   ar
     5     3    17    1
     6     3    39    1
     7     4    20    1
     8     4    24    1
     9     5    18    2
    10     6    27    1
    11     6    47    1
    12     7     8    1
    13     7     9    1
    14     7    11    1
    15     7    12    1
    16     8    14    1
    17     8    28    1
    18     9    10   ar
    19     9    13   ar
    20    10    16   ar
    21    11    29    1
    22    11    30    1
    23    11    31    1
    24    12    32    1
    25    12    33    1
    26    12    34    1
    27    13    15   ar
    28    14    35    1
    29    14    36    1
    30    14    37    1
    31    15    17   ar
    32    15    18   ar
    33    16    17   ar
    34    16    38    1
    35    18    20   ar
    36    19    20   ar
    37    19    21    1
    38    21    22   ar
    39    21    23   ar
    40    22    25   ar
    41    22    40    1
    42    23    26   ar
    43    23    41    1
    44    24    44    1
    45    24    45    1
    46    24    46    1
    47    25    27   ar
    48    25    42    1
    49    26    27   ar
    50    26    43    1
