@<TRIPOS>MOLECULE
IMPHY002919
 63 65 0 0 0
SMALL
GASTEIGER

@<TRIPOS>ATOM
      1 O           3.7320    1.2379    0.0000 O.3     1  UNL1       -0.4647
      2 O           6.3301    3.7379    0.0000 O.2     1  UNL1       -0.2917
      3 O           4.5981   -0.2621    0.0000 O.2     1  UNL1       -0.2505
      4 O           9.8602    0.7138    0.0000 O.3     1  UNL1       -0.4914
      5 O           9.8602    2.7621    0.0000 O.3     1  UNL1       -0.4914
      6 O           8.0622   -2.2621    0.0000 O.3     1  UNL1       -0.4913
      7 O           4.5981   -2.2621    0.0000 O.3     1  UNL1       -0.4913
      8 O           6.3301   -3.2621    0.0000 O.3     1  UNL1       -0.4885
      9 C           5.4641    1.2379    0.0000 C.3     1  UNL1        0.0767
     10 C           6.3301    0.7379    0.0000 C.3     1  UNL1        0.0238
     11 C           5.4641    2.2379    0.0000 C.3     1  UNL1        0.0331
     12 C           7.1962    1.2379    0.0000 C.ar    1  UNL1       -0.0250
     13 C           7.1962    2.2379    0.0000 C.ar    1  UNL1        0.0251
     14 C           6.3301    2.7379    0.0000 C.2     1  UNL1        0.1672
     15 C           6.3301   -0.2621    0.0000 C.ar    1  UNL1       -0.0320
     16 C           4.5981    2.7379    0.0000 C.3     1  UNL1       -0.0546
     17 C           4.5981    0.7379    0.0000 C.2     1  UNL1        0.3118
     18 C           8.0901    0.7033    0.0000 C.ar    1  UNL1       -0.0119
     19 C           8.0901    2.7726    0.0000 C.ar    1  UNL1       -0.0055
     20 C           5.4641   -0.7621    0.0000 C.ar    1  UNL1       -0.0123
     21 C           7.1962   -0.7621    0.0000 C.ar    1  UNL1       -0.0123
     22 C           8.9962    1.2171    0.0000 C.ar    1  UNL1        0.1618
     23 C           8.9962    2.2587    0.0000 C.ar    1  UNL1        0.1622
     24 C           7.1962   -1.7621    0.0000 C.ar    1  UNL1        0.1654
     25 C           5.4641   -1.7621    0.0000 C.ar    1  UNL1        0.1654
     26 C           6.3301   -2.2621    0.0000 C.ar    1  UNL1        0.2035
     27 C           2.8660    0.7379    0.0000 C.3     1  UNL1        0.0897
     28 C           2.0000    1.2379    0.0000 C.3     1  UNL1       -0.0306
     29 C          10.7282    1.2104    0.0000 C.3     1  UNL1        0.0790
     30 C           9.8564    3.7621    0.0000 C.3     1  UNL1        0.0790
     31 C           8.0622   -3.2621    0.0000 C.3     1  UNL1        0.0790
     32 C           3.7320   -1.7621    0.0000 C.3     1  UNL1        0.0790
     33 C           5.4641   -3.7621    0.0000 C.3     1  UNL1        0.0791
     34 H           4.9272    1.5479    0.0000 H       1  UNL1        0.0430
     35 H           5.7932    0.4279    0.0000 H       1  UNL1        0.0406
     36 H           5.4641    2.8579    0.0000 H       1  UNL1        0.0386
     37 H           4.9081    3.2749    0.0000 H       1  UNL1        0.0237
     38 H           4.0611    3.0479    0.0000 H       1  UNL1        0.0237
     39 H           4.2881    2.2010    0.0000 H       1  UNL1        0.0237
     40 H           8.0829    0.0833    0.0000 H       1  UNL1        0.0658
     41 H           8.0829    3.3926    0.0000 H       1  UNL1        0.0662
     42 H           4.9272   -0.4521    0.0000 H       1  UNL1        0.0658
     43 H           7.7331   -0.4521    0.0000 H       1  UNL1        0.0658
     44 H           2.4675    0.2630    0.0000 H       1  UNL1        0.0694
     45 H           3.2646    0.2630    0.0000 H       1  UNL1        0.0694
     46 H           2.3100    1.7749    0.0000 H       1  UNL1        0.0262
     47 H           1.4631    1.5479    0.0000 H       1  UNL1        0.0262
     48 H           1.6900    0.7010    0.0000 H       1  UNL1        0.0262
     49 H          11.0361    0.6723    0.0000 H       1  UNL1        0.0660
     50 H          11.2663    1.5184    0.0000 H       1  UNL1        0.0660
     51 H          10.4203    1.7486    0.0000 H       1  UNL1        0.0660
     52 H          10.4764    3.7645    0.0000 H       1  UNL1        0.0660
     53 H           9.8540    4.3821    0.0000 H       1  UNL1        0.0660
     54 H           9.2364    3.7597    0.0000 H       1  UNL1        0.0660
     55 H           7.4422   -3.2621    0.0000 H       1  UNL1        0.0660
     56 H           8.0622   -3.8821    0.0000 H       1  UNL1        0.0660
     57 H           8.6822   -3.2621    0.0000 H       1  UNL1        0.0660
     58 H           4.0420   -1.2251    0.0000 H       1  UNL1        0.0660
     59 H           3.1951   -1.4521    0.0000 H       1  UNL1        0.0660
     60 H           3.4220   -2.2990    0.0000 H       1  UNL1        0.0660
     61 H           5.1541   -3.2251    0.0000 H       1  UNL1        0.0660
     62 H           4.9272   -4.0721    0.0000 H       1  UNL1        0.0660
     63 H           5.7741   -4.2990    0.0000 H       1  UNL1        0.0660
@<TRIPOS>BOND
     1     1    17    1
     2     1    27    1
     3     2    14    2
     4     3    17    2
     5     4    22    1
     6     4    29    1
     7     5    23    1
     8     5    30    1
     9     6    24    1
    10     6    31    1
    11     7    25    1
    12     7    32    1
    13     8    26    1
    14     8    33    1
    15     9    10    1
    16     9    11    1
    17     9    17    1
    18     9    34    1
    19    10    12    1
    20    10    15    1
    21    10    35    1
    22    11    14    1
    23    11    16    1
    24    11    36    1
    25    12    13   ar
    26    12    18   ar
    27    13    14    1
    28    13    19   ar
    29    15    20   ar
    30    15    21   ar
    31    16    37    1
    32    16    38    1
    33    16    39    1
    34    18    22   ar
    35    18    40    1
    36    19    23   ar
    37    19    41    1
    38    20    25   ar
    39    20    42    1
    40    21    24   ar
    41    21    43    1
    42    22    23   ar
    43    24    26   ar
    44    25    26   ar
    45    27    28    1
    46    27    44    1
    47    27    45    1
    48    28    46    1
    49    28    47    1
    50    28    48    1
    51    29    49    1
    52    29    50    1
    53    29    51    1
    54    30    52    1
    55    30    53    1
    56    30    54    1
    57    31    55    1
    58    31    56    1
    59    31    57    1
    60    32    58    1
    61    32    59    1
    62    32    60    1
    63    33    61    1
    64    33    62    1
    65    33    63    1
