@<TRIPOS>MOLECULE
IMPHY013151
 49 50 0 0 0
SMALL
GASTEIGER

@<TRIPOS>ATOM
      1 O           5.4641    1.1550    0.0000 O.3     1  UNL1       -0.4825
      2 O           3.7320    0.1550    0.0000 O.3     1  UNL1       -0.3835
      3 O           7.1962    0.1550    0.0000 O.3     1  UNL1       -0.4914
      4 O           2.8660   -3.3450    0.0000 O.3     1  UNL1       -0.4914
      5 O           4.5981   -4.3450    0.0000 O.3     1  UNL1       -0.5033
      6 C           5.4641    0.1550    0.0000 C.3     1  UNL1        0.1274
      7 C           4.5981   -0.3450    0.0000 C.3     1  UNL1        0.1167
      8 C           4.5981   -1.3450    0.0000 C.ar    1  UNL1       -0.0120
      9 C           6.3301   -0.3450    0.0000 C.3     1  UNL1       -0.0250
     10 C           6.3301    1.6550    0.0000 C.ar    1  UNL1        0.1624
     11 C           3.7320   -1.8450    0.0000 C.ar    1  UNL1       -0.0106
     12 C           5.4641   -1.8450    0.0000 C.ar    1  UNL1       -0.0523
     13 C           7.1962    1.1550    0.0000 C.ar    1  UNL1        0.1618
     14 C           3.7320   -2.8450    0.0000 C.ar    1  UNL1        0.1616
     15 C           8.0622    2.6550    0.0000 C.ar    1  UNL1       -0.0400
     16 C           6.3301    2.6550    0.0000 C.ar    1  UNL1       -0.0160
     17 C           5.4641   -2.8450    0.0000 C.ar    1  UNL1       -0.0162
     18 C           8.0622    1.6550    0.0000 C.ar    1  UNL1       -0.0128
     19 C           4.5981   -3.3450    0.0000 C.ar    1  UNL1        0.1585
     20 C           7.1962    3.1550    0.0000 C.ar    1  UNL1       -0.0546
     21 C           8.9282    3.1550    0.0000 C.3     1  UNL1       -0.0096
     22 C           8.9282    4.1550    0.0000 C.2     1  UNL1       -0.0868
     23 C           8.0622   -0.3450    0.0000 C.3     1  UNL1        0.0790
     24 C           2.0000   -2.8450    0.0000 C.3     1  UNL1        0.0790
     25 C           9.7942    4.6550    0.0000 C.2     1  UNL1       -0.1023
     26 H           6.0010    0.4650    0.0000 H       1  UNL1        0.0760
     27 H           4.5981    0.2750    0.0000 H       1  UNL1        0.0681
     28 H           6.0201   -0.8819    0.0000 H       1  UNL1        0.0266
     29 H           6.8671   -0.6550    0.0000 H       1  UNL1        0.0266
     30 H           6.6401    0.1919    0.0000 H       1  UNL1        0.0266
     31 H           3.1951   -1.5350    0.0000 H       1  UNL1        0.0659
     32 H           6.0010   -1.5350    0.0000 H       1  UNL1        0.0622
     33 H           3.7320    0.7750    0.0000 H       1  UNL1        0.2104
     34 H           5.7932    2.9650    0.0000 H       1  UNL1        0.0655
     35 H           6.0010   -3.1550    0.0000 H       1  UNL1        0.0655
     36 H           8.5991    1.3450    0.0000 H       1  UNL1        0.0658
     37 H           7.1962    3.7750    0.0000 H       1  UNL1        0.0622
     38 H           9.1403    2.5724    0.0000 H       1  UNL1        0.0355
     39 H           9.5388    3.2627    0.0000 H       1  UNL1        0.0355
     40 H           8.3913    4.4650    0.0000 H       1  UNL1        0.0570
     41 H           5.1350   -4.6550    0.0000 H       1  UNL1        0.2923
     42 H           7.7522   -0.8819    0.0000 H       1  UNL1        0.0660
     43 H           8.5991   -0.6550    0.0000 H       1  UNL1        0.0660
     44 H           8.3722    0.1919    0.0000 H       1  UNL1        0.0660
     45 H           2.3100   -2.3081    0.0000 H       1  UNL1        0.0660
     46 H           1.4631   -2.5350    0.0000 H       1  UNL1        0.0660
     47 H           1.6900   -3.3819    0.0000 H       1  UNL1        0.0660
     48 H          10.3312    4.3450    0.0000 H       1  UNL1        0.0532
     49 H           9.7942    5.2750    0.0000 H       1  UNL1        0.0532
@<TRIPOS>BOND
     1     1     6    1
     2     1    10    1
     3     2     7    1
     4     2    33    1
     5     3    13    1
     6     3    23    1
     7     4    14    1
     8     4    24    1
     9     5    19    1
    10     5    41    1
    11     6     7    1
    12     6     9    1
    13     6    26    1
    14     7     8    1
    15     7    27    1
    16     8    11   ar
    17     8    12   ar
    18     9    28    1
    19     9    29    1
    20     9    30    1
    21    10    13   ar
    22    10    16   ar
    23    11    14   ar
    24    11    31    1
    25    12    17   ar
    26    12    32    1
    27    13    18   ar
    28    14    19   ar
    29    15    18   ar
    30    15    20   ar
    31    15    21    1
    32    16    20   ar
    33    16    34    1
    34    17    19   ar
    35    17    35    1
    36    18    36    1
    37    20    37    1
    38    21    22    1
    39    21    38    1
    40    21    39    1
    41    22    25    2
    42    22    40    1
    43    23    42    1
    44    23    43    1
    45    23    44    1
    46    24    45    1
    47    24    46    1
    48    24    47    1
    49    25    48    1
    50    25    49    1
