@<TRIPOS>MOLECULE
IMPHY004087
 84 88 0 0 0
SMALL
GASTEIGER

@<TRIPOS>ATOM
      1 O           6.6458    2.1045    0.0000 O.2     1  UNL1       -0.2967
      2 O           6.9244   -0.2232    0.0000 O.2     1  UNL1       -0.2967
      3 N           8.9135    0.2852    0.0000 N.3     1  UNL1       -0.2978
      4 N           4.4985    1.5849    0.0000 N.3     1  UNL1       -0.2978
      5 C           8.0195   -0.2495    0.0000 C.3     1  UNL1        0.0227
      6 C           4.5145    0.5434    0.0000 C.3     1  UNL1        0.0227
      7 C           8.0195   -1.2495    0.0000 C.3     1  UNL1       -0.0247
      8 C           3.6485    0.0434    0.0000 C.3     1  UNL1       -0.0247
      9 C           7.1535    0.2505    0.0000 C.3     1  UNL1        0.0336
     10 C           5.3806    0.0434    0.0000 C.3     1  UNL1        0.0336
     11 C           8.9135   -1.7841    0.0000 C.3     1  UNL1       -0.0476
     12 C           2.1590    0.4275    0.0000 C.3     1  UNL1       -0.0476
     13 C           7.1535   -1.7495    0.0000 C.3     1  UNL1       -0.0488
     14 C           3.6485   -0.9566    0.0000 C.3     1  UNL1       -0.0488
     15 C           9.8195   -0.2287    0.0000 C.3     1  UNL1       -0.0008
     16 C           8.8757    1.2762    0.0000 C.3     1  UNL1        0.0085
     17 C           3.3787    2.6396    0.0000 C.3     1  UNL1       -0.0008
     18 C           5.3965    2.1127    0.0000 C.3     1  UNL1        0.0085
     19 C           6.2875   -0.2495    0.0000 C.3     1  UNL1       -0.0420
     20 C           5.3806   -0.9566    0.0000 C.3     1  UNL1       -0.0420
     21 C           9.8195   -1.2703    0.0000 C.3     1  UNL1       -0.0399
     22 C           8.0043    1.7497    0.0000 C.3     1  UNL1        0.0277
     23 C           2.0000    1.9575    0.0000 C.3     1  UNL1       -0.0399
     24 C           6.2986    1.5919    0.0000 C.3     1  UNL1        0.0277
     25 C           7.1522    1.2422    0.0000 C.2     1  UNL1        0.1419
     26 C           6.2906    0.5503    0.0000 C.2     1  UNL1        0.1419
     27 C           7.1535   -2.7495    0.0000 C.3     1  UNL1       -0.0528
     28 C           4.3556   -1.6637    0.0000 C.3     1  UNL1       -0.0528
     29 C           6.0286   -1.2154    0.0000 C.3     1  UNL1       -0.0524
     30 C           5.4464   -2.0424    0.0000 C.3     1  UNL1       -0.0524
     31 C           6.1535   -2.7495    0.0000 C.3     1  UNL1       -0.0530
     32 C           5.0627   -0.9566    0.0000 C.3     1  UNL1       -0.0530
     33 C           7.9846    2.7495    0.0000 C.3     1  UNL1       -0.0545
     34 C           7.1665    2.0885    0.0000 C.3     1  UNL1       -0.0545
     35 H           8.7556   -0.6745    0.0000 H       1  UNL1        0.0472
     36 H           5.2507    0.9684    0.0000 H       1  UNL1        0.0472
     37 H           8.0130   -2.0994    0.0000 H       1  UNL1        0.0316
     38 H           2.9766   -0.4772    0.0000 H       1  UNL1        0.0316
     39 H           6.4171    0.6751    0.0000 H       1  UNL1        0.0393
     40 H           6.1134   -0.3872    0.0000 H       1  UNL1        0.0393
     41 H           8.5089   -2.2539    0.0000 H       1  UNL1        0.0269
     42 H           9.3071   -2.2632    0.0000 H       1  UNL1        0.0269
     43 H           1.5391    0.4368    0.0000 H       1  UNL1        0.0269
     44 H           2.0763   -0.1870    0.0000 H       1  UNL1        0.0269
     45 H           6.9414   -1.1669    0.0000 H       1  UNL1        0.0268
     46 H           6.5429   -1.8571    0.0000 H       1  UNL1        0.0268
     47 H           3.0496   -0.7961    0.0000 H       1  UNL1        0.0268
     48 H           3.3385   -1.4935    0.0000 H       1  UNL1        0.0268
     49 H          10.4304   -0.3348    0.0000 H       1  UNL1        0.0427
     50 H          10.0286    0.3550    0.0000 H       1  UNL1        0.0427
     51 H           9.4896    1.1893    0.0000 H       1  UNL1        0.0433
     52 H           9.0702    1.8649    0.0000 H       1  UNL1        0.0433
     53 H           3.8542    3.0374    0.0000 H       1  UNL1        0.0427
     54 H           3.0400    3.1588    0.0000 H       1  UNL1        0.0427
     55 H           5.7938    2.5886    0.0000 H       1  UNL1        0.0433
     56 H           4.9956    2.5856    0.0000 H       1  UNL1        0.0433
     57 H           6.1270    0.3494    0.0000 H       1  UNL1        0.0272
     58 H           5.6675   -0.2495    0.0000 H       1  UNL1        0.0272
     59 H           4.8375   -0.6575    0.0000 H       1  UNL1        0.0272
     60 H           6.0003   -0.9378    0.0000 H       1  UNL1        0.0272
     61 H          10.0286   -1.8540    0.0000 H       1  UNL1        0.0278
     62 H          10.4304   -1.1642    0.0000 H       1  UNL1        0.0278
     63 H           8.5340    2.0718    0.0000 H       1  UNL1        0.0387
     64 H           1.7928    2.5418    0.0000 H       1  UNL1        0.0278
     65 H           1.3952    1.8208    0.0000 H       1  UNL1        0.0278
     66 H           6.2998    2.2119    0.0000 H       1  UNL1        0.0387
     67 H           7.1535   -3.3695    0.0000 H       1  UNL1        0.0265
     68 H           7.7735   -2.7495    0.0000 H       1  UNL1        0.0265
     69 H           3.9172   -2.1021    0.0000 H       1  UNL1        0.0265
     70 H           4.7940   -2.1021    0.0000 H       1  UNL1        0.0265
     71 H           5.8682   -1.8143    0.0000 H       1  UNL1        0.0265
     72 H           6.6275   -1.3759    0.0000 H       1  UNL1        0.0265
     73 H           4.8415   -1.9062    0.0000 H       1  UNL1        0.0265
     74 H           5.1473   -2.5854    0.0000 H       1  UNL1        0.0265
     75 H           5.6166   -3.0595    0.0000 H       1  UNL1        0.0265
     76 H           6.3140   -3.3484    0.0000 H       1  UNL1        0.0265
     77 H           5.3248   -0.3947    0.0000 H       1  UNL1        0.0265
     78 H           4.5548   -0.6010    0.0000 H       1  UNL1        0.0265
     79 H           8.6045    2.7617    0.0000 H       1  UNL1        0.0237
     80 H           7.9724    3.3694    0.0000 H       1  UNL1        0.0237
     81 H           7.3647    2.7373    0.0000 H       1  UNL1        0.0237
     82 H           7.4745    1.5504    0.0000 H       1  UNL1        0.0237
     83 H           7.7047    2.3965    0.0000 H       1  UNL1        0.0237
     84 H           6.8586    2.6266    0.0000 H       1  UNL1        0.0237
@<TRIPOS>BOND
     1     1    25    2
     2     2    26    2
     3     3     5    1
     4     3    15    1
     5     3    16    1
     6     4     6    1
     7     4    17    1
     8     4    18    1
     9     5     7    1
    10     5     9    1
    11     5    35    1
    12     6     8    1
    13     6    10    1
    14     6    36    1
    15     7    11    1
    16     7    13    1
    17     7    37    1
    18     8    12    1
    19     8    14    1
    20     8    38    1
    21     9    19    1
    22     9    25    1
    23     9    39    1
    24    10    20    1
    25    10    26    1
    26    10    40    1
    27    11    21    1
    28    11    41    1
    29    11    42    1
    30    12    23    1
    31    12    43    1
    32    12    44    1
    33    13    27    1
    34    13    45    1
    35    13    46    1
    36    14    28    1
    37    14    47    1
    38    14    48    1
    39    15    21    1
    40    15    49    1
    41    15    50    1
    42    16    22    1
    43    16    51    1
    44    16    52    1
    45    17    23    1
    46    17    53    1
    47    17    54    1
    48    18    24    1
    49    18    55    1
    50    18    56    1
    51    19    29    1
    52    19    57    1
    53    19    58    1
    54    20    30    1
    55    20    59    1
    56    20    60    1
    57    21    61    1
    58    21    62    1
    59    22    25    1
    60    22    33    1
    61    22    63    1
    62    23    64    1
    63    23    65    1
    64    24    26    1
    65    24    34    1
    66    24    66    1
    67    27    31    1
    68    27    67    1
    69    27    68    1
    70    28    32    1
    71    28    69    1
    72    28    70    1
    73    29    32    1
    74    29    71    1
    75    29    72    1
    76    30    31    1
    77    30    73    1
    78    30    74    1
    79    31    75    1
    80    31    76    1
    81    32    77    1
    82    32    78    1
    83    33    79    1
    84    33    80    1
    85    33    81    1
    86    34    82    1
    87    34    83    1
    88    34    84    1
