@<TRIPOS>MOLECULE
IMPHY013435
 42 45 0 0 0
SMALL
GASTEIGER

@<TRIPOS>ATOM
      1 O          10.4366    0.7056    0.0000 O.3     1  UNL1       -0.4814
      2 O           6.9006    0.7334    0.0000 O.2     1  UNL1       -0.4501
      3 O           8.6605   -2.3013    0.0000 O.3     1  UNL1       -0.5058
      4 O           5.1304   -1.3254    0.0000 O.3     1  UNL1       -0.5007
      5 O           6.9121   -2.3359    0.0000 O.2     1  UNL1       -0.2830
      6 O           2.5381    2.2329    0.0000 O.3     1  UNL1       -0.5068
      7 C          10.4446    1.7472    0.0000 C.3     1  UNL1        0.1235
      8 C           8.6605    0.6987    0.0000 C.ar    1  UNL1        0.0597
      9 C           9.5266    0.1987    0.0000 C.ar    1  UNL1        0.1359
     10 C           9.5425    2.2680    0.0000 C.2     1  UNL1       -0.0408
     11 C           7.7945    0.1987    0.0000 C.ar    1  UNL1        0.1537
     12 C           8.6445    1.7402    0.0000 C.2     1  UNL1       -0.0478
     13 C           7.7945   -0.8013    0.0000 C.ar    1  UNL1        0.1098
     14 C          10.9479    2.6113    0.0000 C.3     1  UNL1       -0.0215
     15 C          11.4446    1.7433    0.0000 C.3     1  UNL1       -0.0215
     16 C           9.5266   -0.8013    0.0000 C.ar    1  UNL1        0.0231
     17 C           8.6605   -1.3013    0.0000 C.ar    1  UNL1        0.1348
     18 C           6.9006   -1.3359    0.0000 C.ar    1  UNL1        0.2379
     19 C           5.9945    0.2195    0.0000 C.ar    1  UNL1        0.1806
     20 C           5.9945   -0.8221    0.0000 C.ar    1  UNL1        0.2082
     21 C           5.1304    0.7229    0.0000 C.ar    1  UNL1        0.0213
     22 C           4.2625    0.2262    0.0000 C.ar    1  UNL1       -0.0475
     23 C           5.1343    1.7229    0.0000 C.ar    1  UNL1       -0.0475
     24 C           3.3984    0.7296    0.0000 C.ar    1  UNL1       -0.0195
     25 C           4.2702    2.2262    0.0000 C.ar    1  UNL1       -0.0195
     26 C           3.4022    1.7296    0.0000 C.ar    1  UNL1        0.1169
     27 H           9.5401    2.8880    0.0000 H       1  UNL1        0.0611
     28 H           8.1040    2.0440    0.0000 H       1  UNL1        0.0624
     29 H          11.4837    2.2992    0.0000 H       1  UNL1        0.0271
     30 H          11.2600    3.1470    0.0000 H       1  UNL1        0.0271
     31 H          10.4122    2.9233    0.0000 H       1  UNL1        0.0271
     32 H          11.4422    1.1233    0.0000 H       1  UNL1        0.0271
     33 H          12.0646    1.7409    0.0000 H       1  UNL1        0.0271
     34 H          11.4470    2.3633    0.0000 H       1  UNL1        0.0271
     35 H          10.0635   -1.1113    0.0000 H       1  UNL1        0.0691
     36 H           9.1975   -2.6113    0.0000 H       1  UNL1        0.2922
     37 H           4.2601   -0.3938    0.0000 H       1  UNL1        0.0626
     38 H           5.6724    2.0308    0.0000 H       1  UNL1        0.0626
     39 H           5.1328   -1.9454    0.0000 H       1  UNL1        0.2924
     40 H           2.8602    0.4216    0.0000 H       1  UNL1        0.0654
     41 H           4.2726    2.8462    0.0000 H       1  UNL1        0.0654
     42 H           2.0000    1.9250    0.0000 H       1  UNL1        0.2921
@<TRIPOS>BOND
     1     1     7    1
     2     1     9    1
     3     2    11   ar
     4     2    19   ar
     5     3    17    1
     6     3    36    1
     7     4    20    1
     8     4    39    1
     9     5    18    2
    10     6    26    1
    11     6    42    1
    12     7    10    1
    13     7    14    1
    14     7    15    1
    15     8     9   ar
    16     8    11   ar
    17     8    12    1
    18     9    16   ar
    19    10    12    2
    20    10    27    1
    21    11    13   ar
    22    12    28    1
    23    13    17   ar
    24    13    18   ar
    25    14    29    1
    26    14    30    1
    27    14    31    1
    28    15    32    1
    29    15    33    1
    30    15    34    1
    31    16    17   ar
    32    16    35    1
    33    18    20   ar
    34    19    20   ar
    35    19    21    1
    36    21    22   ar
    37    21    23   ar
    38    22    24   ar
    39    22    37    1
    40    23    25   ar
    41    23    38    1
    42    24    26   ar
    43    24    40    1
    44    25    26   ar
    45    25    41    1
