@<TRIPOS>MOLECULE
IMPHY006682
 49 50 0 0 0
SMALL
GASTEIGER

@<TRIPOS>ATOM
      1 O           6.7312    3.9240    0.0000 O.2     1  UNL1       -0.4708
      2 O           2.5369   -3.3040    0.0000 O.3     1  UNL1       -0.4771
      3 O           4.2690   -3.3040    0.0000 O.2     1  UNL1       -0.2451
      4 C           5.1350    0.1960    0.0000 C.3     1  UNL1       -0.0257
      5 C           6.0010   -0.3040    0.0000 C.3     1  UNL1       -0.0379
      6 C           5.4440    1.1470    0.0000 C.3     1  UNL1       -0.0430
      7 C           4.2690   -0.3040    0.0000 C.3     1  UNL1       -0.0288
      8 C           6.0010   -1.3040    0.0000 C.3     1  UNL1       -0.0460
      9 C           4.8260    1.1470    0.0000 C.3     1  UNL1       -0.0590
     10 C           6.8671    0.1960    0.0000 C.3     1  UNL1       -0.0619
     11 C           6.4222    1.3549    0.0000 C.3     1  UNL1       -0.0242
     12 C           5.1350   -1.8040    0.0000 C.3     1  UNL1       -0.0272
     13 C           3.4030    0.1960    0.0000 C.2     1  UNL1       -0.0835
     14 C           6.7312    2.3060    0.0000 C.ar    1  UNL1       -0.0097
     15 C           4.2690   -1.3040    0.0000 C.2     1  UNL1       -0.0405
     16 C           2.5369   -0.3040    0.0000 C.2     1  UNL1       -0.0649
     17 C           3.4030   -1.8040    0.0000 C.2     1  UNL1        0.0614
     18 C           2.5369   -1.3040    0.0000 C.2     1  UNL1       -0.0478
     19 C           7.6822    2.6150    0.0000 C.ar    1  UNL1       -0.0208
     20 C           6.1434    3.1150    0.0000 C.ar    1  UNL1        0.0948
     21 C           5.1350   -0.8040    0.0000 C.2     1  UNL1       -0.0947
     22 C           7.6822    3.6150    0.0000 C.ar    1  UNL1        0.0919
     23 C           3.4030   -2.8040    0.0000 C.2     1  UNL1        0.3370
     24 H           6.5380   -0.6140    0.0000 H       1  UNL1        0.0304
     25 H           5.4224    1.7666    0.0000 H       1  UNL1        0.0274
     26 H           4.8301    1.2333    0.0000 H       1  UNL1        0.0274
     27 H           3.8705   -0.7790    0.0000 H       1  UNL1        0.0313
     28 H           4.6675   -0.7790    0.0000 H       1  UNL1        0.0313
     29 H           6.2131   -1.8866    0.0000 H       1  UNL1        0.0271
     30 H           6.6116   -1.1964    0.0000 H       1  UNL1        0.0271
     31 H           5.4156    1.3386    0.0000 H       1  UNL1        0.0235
     32 H           4.6344    1.7367    0.0000 H       1  UNL1        0.0235
     33 H           4.2363    0.9554    0.0000 H       1  UNL1        0.0235
     34 H           7.1771   -0.3410    0.0000 H       1  UNL1        0.0233
     35 H           7.4040    0.5060    0.0000 H       1  UNL1        0.0233
     36 H           6.5571    0.7329    0.0000 H       1  UNL1        0.0233
     37 H           6.4438    0.7353    0.0000 H       1  UNL1        0.0314
     38 H           7.0361    1.2686    0.0000 H       1  UNL1        0.0314
     39 H           4.7365   -2.2790    0.0000 H       1  UNL1        0.0313
     40 H           5.5335   -2.2790    0.0000 H       1  UNL1        0.0313
     41 H           3.4030    0.8160    0.0000 H       1  UNL1        0.0572
     42 H           2.0000    0.0060    0.0000 H       1  UNL1        0.0615
     43 H           2.0000   -1.6140    0.0000 H       1  UNL1        0.0626
     44 H           8.1838    2.2506    0.0000 H       1  UNL1        0.0652
     45 H           5.5234    3.1150    0.0000 H       1  UNL1        0.1032
     46 H           5.6720   -1.1140    0.0000 H       1  UNL1        0.0538
     47 H           5.1350   -0.1840    0.0000 H       1  UNL1        0.0538
     48 H           8.1838    3.9794    0.0000 H       1  UNL1        0.1029
     49 H           2.5369   -3.9240    0.0000 H       1  UNL1        0.2954
@<TRIPOS>BOND
     1     1    20   ar
     2     1    22   ar
     3     2    23    1
     4     2    49    1
     5     3    23    2
     6     4     5    1
     7     4     6    1
     8     4     7    1
     9     4     9    1
    10     5     8    1
    11     5    10    1
    12     5    24    1
    13     6    11    1
    14     6    25    1
    15     6    26    1
    16     7    13    1
    17     7    27    1
    18     7    28    1
    19     8    12    1
    20     8    29    1
    21     8    30    1
    22     9    31    1
    23     9    32    1
    24     9    33    1
    25    10    34    1
    26    10    35    1
    27    10    36    1
    28    11    14    1
    29    11    37    1
    30    11    38    1
    31    12    15    1
    32    12    39    1
    33    12    40    1
    34    13    16    2
    35    13    41    1
    36    14    19   ar
    37    14    20   ar
    38    15    17    1
    39    15    21    2
    40    16    18    1
    41    16    42    1
    42    17    18    2
    43    17    23    1
    44    18    43    1
    45    19    22   ar
    46    19    44    1
    47    20    45    1
    48    21    46    1
    49    21    47    1
    50    22    48    1
