@<TRIPOS>MOLECULE
IMPHY007461
 44 48 0 0 0
SMALL
GASTEIGER

@<TRIPOS>ATOM
      1 O           2.6079    0.4291    0.0000 O.3     1  UNL1       -0.4526
      2 O           2.6079    2.1055    0.0000 O.3     1  UNL1       -0.4526
      3 O           7.1377   -2.3020    0.0000 O.2     1  UNL1       -0.2670
      4 O          10.7705    0.8066    0.0000 O.3     1  UNL1       -0.4914
      5 O          10.7866   -1.2850    0.0000 O.3     1  UNL1       -0.4914
      6 N           6.2435   -0.7742    0.0000 N.ar    1  UNL1       -0.3101
      7 C           6.2596    0.2673    0.0000 C.ar    1  UNL1        0.0601
      8 C           7.1256    0.7673    0.0000 C.ar    1  UNL1        0.0072
      9 C           5.3935    0.7673    0.0000 C.ar    1  UNL1        0.0100
     10 C           8.0356    0.2604    0.0000 C.ar    1  UNL1        0.0001
     11 C           5.3935    1.7673    0.0000 C.ar    1  UNL1       -0.0122
     12 C           8.0436   -0.7811    0.0000 C.ar    1  UNL1        0.0509
     13 C           7.1415   -1.3020    0.0000 C.ar    1  UNL1        0.2594
     14 C           7.1256    1.7673    0.0000 C.ar    1  UNL1       -0.0514
     15 C           4.4996    0.2326    0.0000 C.ar    1  UNL1       -0.0064
     16 C           6.2596    2.2673    0.0000 C.ar    1  UNL1       -0.0532
     17 C           4.4996    2.3020    0.0000 C.ar    1  UNL1       -0.0084
     18 C           3.5935    0.7465    0.0000 C.ar    1  UNL1        0.1669
     19 C           8.9624    0.8245    0.0000 C.ar    1  UNL1       -0.0078
     20 C           3.5935    1.7881    0.0000 C.ar    1  UNL1        0.1668
     21 C           8.9790   -1.3309    0.0000 C.ar    1  UNL1       -0.0034
     22 C           5.3717   -1.2642    0.0000 C.3     1  UNL1        0.0153
     23 C           9.9103    0.2966    0.0000 C.ar    1  UNL1        0.1621
     24 C           9.9187   -0.7884    0.0000 C.ar    1  UNL1        0.1622
     25 C           2.0000    1.2673    0.0000 C.3     1  UNL1        0.2332
     26 C          10.7589    1.8065    0.0000 C.3     1  UNL1        0.0790
     27 C          10.7905   -2.2850    0.0000 C.3     1  UNL1        0.0790
     28 H           7.6625    2.0773    0.0000 H       1  UNL1        0.0624
     29 H           4.5068   -0.3873    0.0000 H       1  UNL1        0.0662
     30 H           6.2596    2.8873    0.0000 H       1  UNL1        0.0624
     31 H           4.5068    2.9219    0.0000 H       1  UNL1        0.0661
     32 H           8.9505    1.4444    0.0000 H       1  UNL1        0.0662
     33 H           8.9766   -1.9509    0.0000 H       1  UNL1        0.0663
     34 H           5.0680   -0.7237    0.0000 H       1  UNL1        0.0457
     35 H           4.8313   -1.5679    0.0000 H       1  UNL1        0.0457
     36 H           5.6755   -1.8046    0.0000 H       1  UNL1        0.0457
     37 H           1.5391    1.6820    0.0000 H       1  UNL1        0.1166
     38 H           1.5391    0.8526    0.0000 H       1  UNL1        0.1166
     39 H          11.3789    1.8137    0.0000 H       1  UNL1        0.0660
     40 H          10.7518    2.4265    0.0000 H       1  UNL1        0.0660
     41 H          10.1390    1.7993    0.0000 H       1  UNL1        0.0660
     42 H          10.1705   -2.2874    0.0000 H       1  UNL1        0.0660
     43 H          10.7929   -2.9050    0.0000 H       1  UNL1        0.0660
     44 H          11.4105   -2.2826    0.0000 H       1  UNL1        0.0660
@<TRIPOS>BOND
     1     1    18    1
     2     1    25    1
     3     2    20    1
     4     2    25    1
     5     3    13    2
     6     4    23    1
     7     4    26    1
     8     5    24    1
     9     5    27    1
    10     6     7   ar
    11     6    13   ar
    12     6    22    1
    13     7     8   ar
    14     7     9   ar
    15     8    10   ar
    16     8    14   ar
    17     9    11   ar
    18     9    15   ar
    19    10    12   ar
    20    10    19   ar
    21    11    16   ar
    22    11    17   ar
    23    12    13   ar
    24    12    21   ar
    25    14    16   ar
    26    14    28    1
    27    15    18   ar
    28    15    29    1
    29    16    30    1
    30    17    20   ar
    31    17    31    1
    32    18    20   ar
    33    19    23   ar
    34    19    32    1
    35    21    24   ar
    36    21    33    1
    37    22    34    1
    38    22    35    1
    39    22    36    1
    40    23    24   ar
    41    25    37    1
    42    25    38    1
    43    26    39    1
    44    26    40    1
    45    26    41    1
    46    27    42    1
    47    27    43    1
    48    27    44    1
