@<TRIPOS>MOLECULE
IMPHY013987
 47 46 0 0 0
SMALL
GASTEIGER

@<TRIPOS>ATOM
      1 O           2.8660    0.7500    0.0000 O.3     1  UNL1       -0.4679
      2 O           3.7320   -0.7500    0.0000 O.2     1  UNL1       -0.2509
      3 C           6.3301    0.7500    0.0000 C.3     1  UNL1       -0.0523
      4 C           7.1962    0.2500    0.0000 C.3     1  UNL1       -0.0496
      5 C           5.4641    0.2500    0.0000 C.3     1  UNL1       -0.0430
      6 C           8.0622    0.7500    0.0000 C.3     1  UNL1       -0.0348
      7 C           4.5981    0.7500    0.0000 C.3     1  UNL1        0.0449
      8 C           8.9282    0.2500    0.0000 C.2     1  UNL1       -0.0876
      9 C           3.7320    0.2500    0.0000 C.2     1  UNL1        0.3068
     10 C           9.7942    0.7500    0.0000 C.2     1  UNL1       -0.0842
     11 C          10.6603    0.2500    0.0000 C.3     1  UNL1       -0.0165
     12 C          11.5263    0.7500    0.0000 C.2     1  UNL1       -0.0839
     13 C          12.3923    0.2500    0.0000 C.2     1  UNL1       -0.0839
     14 C          13.2583    0.7500    0.0000 C.3     1  UNL1       -0.0165
     15 C          14.1244    0.2500    0.0000 C.2     1  UNL1       -0.0842
     16 C          15.8564    0.2500    0.0000 C.3     1  UNL1       -0.0376
     17 C          14.9904    0.7500    0.0000 C.2     1  UNL1       -0.0879
     18 C           2.0000    0.2500    0.0000 C.3     1  UNL1        0.0817
     19 C          16.7224    0.7500    0.0000 C.3     1  UNL1       -0.0618
     20 H           6.7287    1.2250    0.0000 H       1  UNL1        0.0265
     21 H           5.9316    1.2250    0.0000 H       1  UNL1        0.0265
     22 H           6.7976   -0.2249    0.0000 H       1  UNL1        0.0268
     23 H           7.5947   -0.2249    0.0000 H       1  UNL1        0.0268
     24 H           5.0656   -0.2249    0.0000 H       1  UNL1        0.0270
     25 H           5.8626   -0.2249    0.0000 H       1  UNL1        0.0270
     26 H           8.4607    1.2250    0.0000 H       1  UNL1        0.0307
     27 H           7.6636    1.2250    0.0000 H       1  UNL1        0.0307
     28 H           4.9966    1.2250    0.0000 H       1  UNL1        0.0377
     29 H           4.1996    1.2250    0.0000 H       1  UNL1        0.0377
     30 H           8.9282   -0.3700    0.0000 H       1  UNL1        0.0569
     31 H           9.7942    1.3700    0.0000 H       1  UNL1        0.0572
     32 H          10.2617   -0.2249    0.0000 H       1  UNL1        0.0350
     33 H          11.0588   -0.2249    0.0000 H       1  UNL1        0.0350
     34 H          11.5263    1.3700    0.0000 H       1  UNL1        0.0572
     35 H          12.3923   -0.3700    0.0000 H       1  UNL1        0.0572
     36 H          13.6569    1.2250    0.0000 H       1  UNL1        0.0350
     37 H          12.8598    1.2250    0.0000 H       1  UNL1        0.0350
     38 H          14.1244   -0.3700    0.0000 H       1  UNL1        0.0572
     39 H          15.4579   -0.2249    0.0000 H       1  UNL1        0.0305
     40 H          16.2549   -0.2249    0.0000 H       1  UNL1        0.0305
     41 H          14.9904    1.3700    0.0000 H       1  UNL1        0.0569
     42 H           1.6900    0.7869    0.0000 H       1  UNL1        0.0661
     43 H           1.4631   -0.0600    0.0000 H       1  UNL1        0.0661
     44 H           2.3100   -0.2869    0.0000 H       1  UNL1        0.0661
     45 H          17.0324    0.2131    0.0000 H       1  UNL1        0.0233
     46 H          17.2594    1.0600    0.0000 H       1  UNL1        0.0233
     47 H          16.4124    1.2869    0.0000 H       1  UNL1        0.0233
@<TRIPOS>BOND
     1     1     9    1
     2     1    18    1
     3     2     9    2
     4     3     4    1
     5     3     5    1
     6     3    20    1
     7     3    21    1
     8     4     6    1
     9     4    22    1
    10     4    23    1
    11     5     7    1
    12     5    24    1
    13     5    25    1
    14     6     8    1
    15     6    26    1
    16     6    27    1
    17     7     9    1
    18     7    28    1
    19     7    29    1
    20     8    10    2
    21     8    30    1
    22    10    11    1
    23    10    31    1
    24    11    12    1
    25    11    32    1
    26    11    33    1
    27    12    13    2
    28    12    34    1
    29    13    14    1
    30    13    35    1
    31    14    15    1
    32    14    36    1
    33    14    37    1
    34    15    17    2
    35    15    38    1
    36    16    17    1
    37    16    19    1
    38    16    39    1
    39    16    40    1
    40    17    41    1
    41    18    42    1
    42    18    43    1
    43    18    44    1
    44    19    45    1
    45    19    46    1
    46    19    47    1
