@<TRIPOS>MOLECULE
IMPHY001882
 135 141 0 0 0
SMALL
GASTEIGER

@<TRIPOS>ATOM
      1 O          18.9891    0.7853    0.0000 O.3     1  UNL1       -0.3850
      2 O          18.4251    1.1138    0.0000 O.3     1  UNL1       -0.3854
      3 O          19.2736   -2.4119    0.0000 O.3     1  UNL1       -0.3842
      4 O          17.7678   -2.6498    0.0000 O.3     1  UNL1       -0.3910
      5 O          21.3068   -1.6462    0.0000 O.3     1  UNL1       -0.4589
      6 O          13.2583    1.9200    0.0000 O.3     1  UNL1       -0.3480
      7 O          11.5263    1.9200    0.0000 O.3     1  UNL1       -0.3456
      8 O          22.0079   -3.2300    0.0000 O.2     1  UNL1       -0.2512
      9 O          11.5263   -1.0800    0.0000 O.3     1  UNL1       -0.3770
     10 O           9.7942   -0.0800    0.0000 O.3     1  UNL1       -0.3429
     11 O           8.9282    1.4200    0.0000 O.3     1  UNL1       -0.3456
     12 O           6.3301   -0.0800    0.0000 O.3     1  UNL1       -0.3770
     13 O           6.3301    1.9200    0.0000 O.3     1  UNL1       -0.3403
     14 O           5.4641    0.4200    0.0000 O.3     1  UNL1       -0.3431
     15 O           4.5981    2.9200    0.0000 O.3     1  UNL1       -0.3841
     16 O           2.8660    1.9200    0.0000 O.3     1  UNL1       -0.3744
     17 O           2.8660   -0.0800    0.0000 O.3     1  UNL1       -0.3866
     18 C          18.6435   -0.1531    0.0000 C.3     1  UNL1        0.1054
     19 C          18.6396   -1.1531    0.0000 C.3     1  UNL1        0.0574
     20 C          17.7794    0.3502    0.0000 C.3     1  UNL1        0.0987
     21 C          16.9114   -0.1464    0.0000 C.3     1  UNL1       -0.0014
     22 C          16.0034    0.3639    0.0000 C.3     1  UNL1       -0.0235
     23 C          19.5846   -1.4615    0.0000 C.3     1  UNL1        0.1130
     24 C          17.7717   -1.6498    0.0000 C.3     1  UNL1        0.0664
     25 C          16.9076   -1.1464    0.0000 C.3     1  UNL1       -0.0201
     26 C          15.9994    1.4055    0.0000 C.3     1  UNL1       -0.0329
     27 C          19.5909    0.1480    0.0000 C.3     1  UNL1       -0.0178
     28 C          17.7994    1.3917    0.0000 C.3     1  UNL1       -0.0207
     29 C          20.1714   -0.6590    0.0000 C.3     1  UNL1       -0.0171
     30 C          16.9035    1.9229    0.0000 C.3     1  UNL1       -0.0469
     31 C          15.0744   -0.1966    0.0000 C.3     1  UNL1       -0.0447
     32 C          18.6358   -2.1531    0.0000 C.3     1  UNL1       -0.0517
     33 C          15.0661    1.9589    0.0000 C.3     1  UNL1       -0.0232
     34 C          16.0072   -0.6361    0.0000 C.3     1  UNL1       -0.0590
     35 C          20.3924   -2.0510    0.0000 C.3     1  UNL1        0.1295
     36 C          14.1285    0.3350    0.0000 C.3     1  UNL1       -0.0260
     37 C          14.1244    1.4200    0.0000 C.3     1  UNL1        0.0620
     38 C          20.2858   -3.0453    0.0000 C.3     1  UNL1       -0.0249
     39 C          12.3923    1.4200    0.0000 C.3     1  UNL1        0.1624
     40 C          22.1146   -2.2357    0.0000 C.2     1  UNL1        0.3043
     41 C          12.3923    0.4200    0.0000 C.3     1  UNL1        0.0272
     42 C          11.5263   -0.0800    0.0000 C.3     1  UNL1        0.0915
     43 C          23.0290   -1.8309    0.0000 C.3     1  UNL1        0.0332
     44 C          10.6603    1.4200    0.0000 C.3     1  UNL1        0.0875
     45 C          10.6603    0.4200    0.0000 C.3     1  UNL1        0.1137
     46 C           9.7942    1.9200    0.0000 C.3     1  UNL1       -0.0361
     47 C           8.9282    0.4200    0.0000 C.3     1  UNL1        0.1626
     48 C          12.3923   -1.5800    0.0000 C.3     1  UNL1        0.0369
     49 C           8.0622   -0.0800    0.0000 C.3     1  UNL1        0.0272
     50 C           7.1962    0.4200    0.0000 C.3     1  UNL1        0.0915
     51 C           8.0622    1.9200    0.0000 C.3     1  UNL1        0.0875
     52 C           7.1962    1.4200    0.0000 C.3     1  UNL1        0.1138
     53 C           8.0622    2.9200    0.0000 C.3     1  UNL1       -0.0361
     54 C           5.4641    1.4200    0.0000 C.3     1  UNL1        0.1883
     55 C           6.3301   -1.0800    0.0000 C.3     1  UNL1        0.0369
     56 C           4.5981    1.9200    0.0000 C.3     1  UNL1        0.1344
     57 C           3.7320    1.4200    0.0000 C.3     1  UNL1        0.1170
     58 C           4.5981   -0.0800    0.0000 C.3     1  UNL1        0.0873
     59 C           3.7320    0.4200    0.0000 C.3     1  UNL1        0.1097
     60 C           4.5981   -1.0800    0.0000 C.3     1  UNL1       -0.0361
     61 C           2.0000    1.4200    0.0000 C.3     1  UNL1        0.0370
     62 H          17.6459   -0.5743    0.0000 H       1  UNL1        0.0336
     63 H          17.2335   -1.9577    0.0000 H       1  UNL1        0.0601
     64 H          16.2974   -1.0364    0.0000 H       1  UNL1        0.0294
     65 H          16.6933   -1.7282    0.0000 H       1  UNL1        0.0294
     66 H          16.0059    2.2555    0.0000 H       1  UNL1        0.0307
     67 H          20.1294    0.4551    0.0000 H       1  UNL1        0.0295
     68 H          19.3420    0.7158    0.0000 H       1  UNL1        0.0295
     69 H          18.4081    1.2738    0.0000 H       1  UNL1        0.0294
     70 H          18.0197    1.9712    0.0000 H       1  UNL1        0.0294
     71 H          20.6306   -1.0755    0.0000 H       1  UNL1        0.0295
     72 H          20.6338   -0.2461    0.0000 H       1  UNL1        0.0295
     73 H          17.3062    2.3942    0.0000 H       1  UNL1        0.0269
     74 H          16.5080    2.4004    0.0000 H       1  UNL1        0.0269
     75 H          14.6826   -0.6771    0.0000 H       1  UNL1        0.0271
     76 H          15.4808   -0.6648    0.0000 H       1  UNL1        0.0271
     77 H          18.0158   -2.1507    0.0000 H       1  UNL1        0.0238
     78 H          18.6334   -2.7731    0.0000 H       1  UNL1        0.0238
     79 H          19.2558   -2.1555    0.0000 H       1  UNL1        0.0238
     80 H          15.4689    2.4302    0.0000 H       1  UNL1        0.0293
     81 H          14.6706    2.4364    0.0000 H       1  UNL1        0.0293
     82 H          15.3872   -0.6385    0.0000 H       1  UNL1        0.0235
     83 H          16.0096   -1.2561    0.0000 H       1  UNL1        0.0235
     84 H          16.6272   -0.6337    0.0000 H       1  UNL1        0.0235
     85 H          20.4585   -1.4345    0.0000 H       1  UNL1        0.0760
     86 H          13.5173    0.4387    0.0000 H       1  UNL1        0.0290
     87 H          13.9217   -0.2495    0.0000 H       1  UNL1        0.0290
     88 H          19.6001    0.8906    0.0000 H       1  UNL1        0.2103
     89 H          18.5351    1.7239    0.0000 H       1  UNL1        0.2103
     90 H          13.5880    1.1090    0.0000 H       1  UNL1        0.0597
     91 H          19.6875   -2.8735    0.0000 H       1  UNL1        0.2103
     92 H          17.2297   -2.9577    0.0000 H       1  UNL1        0.2098
     93 H          19.6693   -2.9792    0.0000 H       1  UNL1        0.0266
     94 H          20.2197   -3.6618    0.0000 H       1  UNL1        0.0266
     95 H          20.9022   -3.1114    0.0000 H       1  UNL1        0.0266
     96 H          12.9292    1.1100    0.0000 H       1  UNL1        0.0910
     97 H          12.6044   -0.1626    0.0000 H       1  UNL1        0.0340
     98 H          13.0029    0.5277    0.0000 H       1  UNL1        0.0340
     99 H          10.9893   -0.3900    0.0000 H       1  UNL1        0.0624
    100 H          23.2800   -2.3978    0.0000 H       1  UNL1        0.0342
    101 H          23.5959   -1.5799    0.0000 H       1  UNL1        0.0342
    102 H          22.7780   -1.2640    0.0000 H       1  UNL1        0.0342
    103 H          10.6603    2.0400    0.0000 H       1  UNL1        0.0621
    104 H          10.1233    0.7300    0.0000 H       1  UNL1        0.0649
    105 H          10.1042    2.4569    0.0000 H       1  UNL1        0.0255
    106 H           9.2573    2.2300    0.0000 H       1  UNL1        0.0255
    107 H           9.4842    1.3830    0.0000 H       1  UNL1        0.0255
    108 H           8.9282   -0.2000    0.0000 H       1  UNL1        0.0910
    109 H          12.0823   -2.1170    0.0000 H       1  UNL1        0.0524
    110 H          12.9292   -1.8900    0.0000 H       1  UNL1        0.0524
    111 H          12.7023   -1.0431    0.0000 H       1  UNL1        0.0524
    112 H           7.6636   -0.5550    0.0000 H       1  UNL1        0.0340
    113 H           8.4607   -0.5550    0.0000 H       1  UNL1        0.0340
    114 H           6.6592    0.7300    0.0000 H       1  UNL1        0.0624
    115 H           8.5991    2.2300    0.0000 H       1  UNL1        0.0621
    116 H           7.1962    2.0400    0.0000 H       1  UNL1        0.0649
    117 H           8.6822    2.9200    0.0000 H       1  UNL1        0.0255
    118 H           8.0622    3.5400    0.0000 H       1  UNL1        0.0255
    119 H           7.4422    2.9200    0.0000 H       1  UNL1        0.0255
    120 H           5.4641    2.0400    0.0000 H       1  UNL1        0.0938
    121 H           5.7101   -1.0800    0.0000 H       1  UNL1        0.0524
    122 H           6.3301   -1.7000    0.0000 H       1  UNL1        0.0524
    123 H           6.9501   -1.0800    0.0000 H       1  UNL1        0.0524
    124 H           4.0611    2.2300    0.0000 H       1  UNL1        0.0671
    125 H           4.2941    2.0400    0.0000 H       1  UNL1        0.0650
    126 H           5.1350   -0.3900    0.0000 H       1  UNL1        0.0621
    127 H           3.7320   -0.2000    0.0000 H       1  UNL1        0.0646
    128 H           4.0611    3.2300    0.0000 H       1  UNL1        0.2101
    129 H           3.9781   -1.0800    0.0000 H       1  UNL1        0.0255
    130 H           4.5981   -1.7000    0.0000 H       1  UNL1        0.0255
    131 H           5.2181   -1.0800    0.0000 H       1  UNL1        0.0255
    132 H           2.8660   -0.7000    0.0000 H       1  UNL1        0.2100
    133 H           1.6900    1.9569    0.0000 H       1  UNL1        0.0524
    134 H           1.4631    1.1100    0.0000 H       1  UNL1        0.0524
    135 H           2.3100    0.8831    0.0000 H       1  UNL1        0.0524
@<TRIPOS>BOND
     1    18     1    1
     2     1    88    1
     3    20     2    1
     4     2    89    1
     5    23     3    1
     6     3    91    1
     7    24     4    1
     8     4    92    1
     9    35     5    1
    10     5    40    1
    11    37     6    1
    12    39     6    1
    13     7    39    1
    14     7    44    1
    15     8    40    2
    16    42     9    1
    17     9    48    1
    18    45    10    1
    19    47    10    1
    20    11    47    1
    21    11    51    1
    22    50    12    1
    23    12    55    1
    24    52    13    1
    25    54    13    1
    26    14    54    1
    27    14    58    1
    28    56    15    1
    29    15   128    1
    30    57    16    1
    31    16    61    1
    32    59    17    1
    33    17   132    1
    34    18    19    1
    35    18    20    1
    36    18    27    1
    37    19    23    1
    38    19    24    1
    39    19    32    1
    40    20    21    1
    41    20    28    1
    42    21    22    1
    43    21    25    1
    44    21    62    1
    45    22    26    1
    46    22    31    1
    47    22    34    1
    48    23    29    1
    49    23    35    1
    50    24    25    1
    51    24    63    1
    52    25    64    1
    53    25    65    1
    54    26    30    1
    55    26    33    1
    56    26    66    1
    57    27    29    1
    58    27    67    1
    59    27    68    1
    60    28    30    1
    61    28    69    1
    62    28    70    1
    63    29    71    1
    64    29    72    1
    65    30    73    1
    66    30    74    1
    67    31    36    1
    68    31    75    1
    69    31    76    1
    70    32    77    1
    71    32    78    1
    72    32    79    1
    73    33    37    1
    74    33    80    1
    75    33    81    1
    76    34    82    1
    77    34    83    1
    78    34    84    1
    79    35    38    1
    80    35    85    1
    81    36    37    1
    82    36    86    1
    83    36    87    1
    84    37    90    1
    85    38    93    1
    86    38    94    1
    87    38    95    1
    88    39    41    1
    89    39    96    1
    90    40    43    1
    91    41    42    1
    92    41    97    1
    93    41    98    1
    94    42    45    1
    95    42    99    1
    96    43   100    1
    97    43   101    1
    98    43   102    1
    99    44    45    1
   100    44    46    1
   101    44   103    1
   102    45   104    1
   103    46   105    1
   104    46   106    1
   105    46   107    1
   106    47    49    1
   107    47   108    1
   108    48   109    1
   109    48   110    1
   110    48   111    1
   111    49    50    1
   112    49   112    1
   113    49   113    1
   114    50    52    1
   115    50   114    1
   116    51    52    1
   117    51    53    1
   118    51   115    1
   119    52   116    1
   120    53   117    1
   121    53   118    1
   122    53   119    1
   123    54    56    1
   124    54   120    1
   125    55   121    1
   126    55   122    1
   127    55   123    1
   128    56    57    1
   129    56   124    1
   130    57    59    1
   131    57   125    1
   132    58    59    1
   133    58    60    1
   134    58   126    1
   135    59   127    1
   136    60   129    1
   137    60   130    1
   138    60   131    1
   139    61   133    1
   140    61   134    1
   141    61   135    1
