@<TRIPOS>MOLECULE
IMPHY005634
 70 77 0 0 0
SMALL
GASTEIGER

@<TRIPOS>ATOM
      1 O          11.9717    0.7102    0.0000 O.3     1  UNL1       -0.3180
      2 O          10.1094   -0.2246    0.0000 O.3     1  UNL1       -0.4532
      3 O          14.0102    2.9133    0.0000 O.3     1  UNL1       -0.4780
      4 O           9.9297    3.5878    0.0000 O.2     1  UNL1       -0.2924
      5 O           8.5303    3.0198    0.0000 O.3     1  UNL1       -0.5063
      6 O           9.2582   -0.6651    0.0000 O.3     1  UNL1       -0.5062
      7 O          16.4525    0.2392    0.0000 O.3     1  UNL1       -0.5066
      8 O          10.8246   -3.7548    0.0000 O.3     1  UNL1       -0.5066
      9 O           3.9938    1.7338    0.0000 O.3     1  UNL1       -0.5061
     10 O           2.0456   -1.1306    0.0000 O.3     1  UNL1       -0.5066
     11 C          11.0987    1.2794    0.0000 C.3     1  UNL1        0.1643
     12 C          11.0421    0.2393    0.0000 C.3     1  UNL1        0.2743
     13 C          12.3198    2.1450    0.0000 C.3     1  UNL1        0.0285
     14 C          10.2697    1.8386    0.0000 C.3     1  UNL1        0.0896
     15 C          11.8420    4.0935    0.0000 C.3     1  UNL1        0.0037
     16 C          12.5786    3.1109    0.0000 C.3     1  UNL1        0.1663
     17 C          10.5453    2.7998    0.0000 C.2     1  UNL1        0.1868
     18 C           9.3266    1.3964    0.0000 C.ar    1  UNL1        0.0491
     19 C          13.5914    1.3504    0.0000 C.ar    1  UNL1        0.0008
     20 C          10.9877   -0.7593    0.0000 C.ar    1  UNL1        0.0680
     21 C           9.2459    0.3579    0.0000 C.ar    1  UNL1        0.1327
     22 C          14.3686    1.9797    0.0000 C.ar    1  UNL1        0.1289
     23 C          12.8374    4.0769    0.0000 C.3     1  UNL1       -0.0178
     24 C           8.4413    2.0238    0.0000 C.ar    1  UNL1        0.1248
     25 C          13.7385    0.3192    0.0000 C.ar    1  UNL1       -0.0513
     26 C          10.0958   -1.2114    0.0000 C.ar    1  UNL1        0.1298
     27 C          11.8253   -1.3056    0.0000 C.ar    1  UNL1       -0.0453
     28 C           8.2744   -0.1252    0.0000 C.ar    1  UNL1       -0.0121
     29 C          15.3467    1.6214    0.0000 C.ar    1  UNL1        0.0219
     30 C           7.4589    1.5632    0.0000 C.ar    1  UNL1       -0.0125
     31 C           7.3749    0.4815    0.0000 C.ar    1  UNL1       -0.0181
     32 C          14.7080   -0.0616    0.0000 C.ar    1  UNL1       -0.0197
     33 C          10.0414   -2.2100    0.0000 C.ar    1  UNL1        0.0218
     34 C          11.7709   -2.3041    0.0000 C.ar    1  UNL1       -0.0195
     35 C          15.5175    0.5939    0.0000 C.ar    1  UNL1        0.1203
     36 C          10.8790   -2.7563    0.0000 C.ar    1  UNL1        0.1203
     37 C           6.4744    0.0466    0.0000 C.2     1  UNL1       -0.0537
     38 C           5.6475    0.6090    0.0000 C.2     1  UNL1       -0.0505
     39 C           4.7471    0.1741    0.0000 C.ar    1  UNL1        0.0167
     40 C           3.9202    0.7365    0.0000 C.ar    1  UNL1        0.1274
     41 C           4.6735   -0.8232    0.0000 C.ar    1  UNL1       -0.0477
     42 C           3.0197    0.3016    0.0000 C.ar    1  UNL1        0.0219
     43 C           3.7730   -1.2581    0.0000 C.ar    1  UNL1       -0.0194
     44 C           2.9461   -0.6957    0.0000 C.ar    1  UNL1        0.1204
     45 H          12.3378    1.5253    0.0000 H       1  UNL1        0.0382
     46 H           9.7978    2.2407    0.0000 H       1  UNL1        0.0461
     47 H          12.1598    4.6259    0.0000 H       1  UNL1        0.0315
     48 H          11.2288    4.1855    0.0000 H       1  UNL1        0.0315
     49 H          13.4363    3.9164    0.0000 H       1  UNL1        0.0272
     50 H          12.9979    4.6757    0.0000 H       1  UNL1        0.0272
     51 H          12.2385    4.2373    0.0000 H       1  UNL1        0.0272
     52 H          13.2522   -0.0654    0.0000 H       1  UNL1        0.0623
     53 H          12.3783   -1.0252    0.0000 H       1  UNL1        0.0625
     54 H           8.2335   -0.7439    0.0000 H       1  UNL1        0.0660
     55 H          15.8240    2.0172    0.0000 H       1  UNL1        0.0691
     56 H           6.9490    1.9158    0.0000 H       1  UNL1        0.0660
     57 H          14.8027   -0.6743    0.0000 H       1  UNL1        0.0654
     58 H           9.4884   -2.4903    0.0000 H       1  UNL1        0.0691
     59 H          12.2902   -2.6429    0.0000 H       1  UNL1        0.0654
     60 H           8.0231    3.3764    0.0000 H       1  UNL1        0.2921
     61 H           8.7052   -0.9454    0.0000 H       1  UNL1        0.2922
     62 H           6.4288   -0.5717    0.0000 H       1  UNL1        0.0624
     63 H          16.9328    0.6312    0.0000 H       1  UNL1        0.2921
     64 H          11.3439   -4.0935    0.0000 H       1  UNL1        0.2921
     65 H           5.6932    1.2273    0.0000 H       1  UNL1        0.0625
     66 H           5.1861   -1.1719    0.0000 H       1  UNL1        0.0626
     67 H           2.5070    0.6502    0.0000 H       1  UNL1        0.0691
     68 H           3.7274   -1.8764    0.0000 H       1  UNL1        0.0654
     69 H           3.4811    2.0824    0.0000 H       1  UNL1        0.2922
     70 H           2.0000   -1.7490    0.0000 H       1  UNL1        0.2921
@<TRIPOS>BOND
     1     1    11    1
     2     1    12    1
     3     2    12    1
     4     2    21    1
     5     3    16    1
     6     3    22    1
     7     4    17    2
     8     5    24    1
     9     5    60    1
    10     6    26    1
    11     6    61    1
    12     7    35    1
    13     7    63    1
    14     8    36    1
    15     8    64    1
    16     9    40    1
    17     9    69    1
    18    10    44    1
    19    10    70    1
    20    11    12    1
    21    11    13    1
    22    11    14    1
    23    12    20    1
    24    13    15    1
    25    13    19    1
    26    13    45    1
    27    14    17    1
    28    14    18    1
    29    14    46    1
    30    15    16    1
    31    15    47    1
    32    15    48    1
    33    16    17    1
    34    16    23    1
    35    18    21   ar
    36    18    24   ar
    37    19    22   ar
    38    19    25   ar
    39    20    26   ar
    40    20    27   ar
    41    21    28   ar
    42    22    29   ar
    43    23    49    1
    44    23    50    1
    45    23    51    1
    46    24    30   ar
    47    25    32   ar
    48    25    52    1
    49    26    33   ar
    50    27    34   ar
    51    27    53    1
    52    28    31   ar
    53    28    54    1
    54    29    35   ar
    55    29    55    1
    56    30    31   ar
    57    30    56    1
    58    31    37    1
    59    32    35   ar
    60    32    57    1
    61    33    36   ar
    62    33    58    1
    63    34    36   ar
    64    34    59    1
    65    37    38    2
    66    37    62    1
    67    38    39    1
    68    38    65    1
    69    39    40   ar
    70    39    41   ar
    71    40    42   ar
    72    41    43   ar
    73    41    66    1
    74    42    44   ar
    75    42    67    1
    76    43    44   ar
    77    43    68    1
