@<TRIPOS>MOLECULE
IMPHY008242
 78 80 0 0 0
SMALL
GASTEIGER

@<TRIPOS>ATOM
      1 O           6.8671   -1.4800    0.0000 O.3     1  UNL1       -0.3912
      2 O           6.0010   -1.2479    0.0000 O.3     1  UNL1       -0.3481
      3 O           4.2690   -1.2479    0.0000 O.3     1  UNL1       -0.3405
      4 O           6.0010   -3.2479    0.0000 O.3     1  UNL1       -0.3841
      5 O           4.2690   -4.2479    0.0000 O.3     1  UNL1       -0.3864
      6 O           2.5369   -3.2479    0.0000 O.3     1  UNL1       -0.3865
      7 O           2.5369   -0.2479    0.0000 O.3     1  UNL1       -0.3924
      8 O          13.4315    4.5579    0.0000 O.3     1  UNL1       -0.3910
      9 C           8.3671    1.1181    0.0000 C.3     1  UNL1       -0.0220
     10 C           7.3671    1.1181    0.0000 C.3     1  UNL1       -0.0249
     11 C           6.8671    0.2521    0.0000 C.3     1  UNL1        0.0206
     12 C           8.9017    2.0120    0.0000 C.3     1  UNL1       -0.0142
     13 C           8.8671    0.2521    0.0000 C.3     1  UNL1       -0.0445
     14 C           7.3671   -0.6139    0.0000 C.3     1  UNL1        0.0630
     15 C           6.8324    2.0120    0.0000 C.3     1  UNL1       -0.0454
     16 C           8.3671   -0.6139    0.0000 C.3     1  UNL1       -0.0257
     17 C           9.3671    1.1181    0.0000 C.3     1  UNL1       -0.0587
     18 C           7.3462    2.9181    0.0000 C.3     1  UNL1       -0.0314
     19 C           8.3879    2.9181    0.0000 C.2     1  UNL1       -0.0730
     20 C           6.0010   -0.2479    0.0000 C.3     1  UNL1        0.0588
     21 C           6.0010    0.7521    0.0000 C.3     1  UNL1       -0.0548
     22 C           9.9017    2.0005    0.0000 C.3     1  UNL1       -0.0423
     23 C          10.4116    2.8607    0.0000 C.3     1  UNL1       -0.0314
     24 C           8.8912    3.7822    0.0000 C.2     1  UNL1       -0.0992
     25 C           5.1350   -1.7479    0.0000 C.3     1  UNL1        0.1879
     26 C          11.4116    2.8491    0.0000 C.2     1  UNL1       -0.0744
     27 C           5.1350   -2.7479    0.0000 C.3     1  UNL1        0.1341
     28 C           4.2690   -3.2479    0.0000 C.3     1  UNL1        0.1141
     29 C           3.4030   -1.7479    0.0000 C.3     1  UNL1        0.1130
     30 C           3.4030   -2.7479    0.0000 C.3     1  UNL1        0.1119
     31 C          11.9015    1.9774    0.0000 C.3     1  UNL1       -0.0437
     32 C          11.9216    3.7093    0.0000 C.2     1  UNL1       -0.0600
     33 C           2.5369   -1.2479    0.0000 C.3     1  UNL1        0.0730
     34 C          12.9215    3.6977    0.0000 C.3     1  UNL1        0.0626
     35 H           6.7471    1.1133    0.0000 H       1  UNL1        0.0313
     36 H           9.2169    2.5460    0.0000 H       1  UNL1        0.0351
     37 H           9.3420   -0.1464    0.0000 H       1  UNL1        0.0272
     38 H           9.3420    0.6506    0.0000 H       1  UNL1        0.0272
     39 H           7.6771   -1.1509    0.0000 H       1  UNL1        0.0599
     40 H           6.3534    2.4057    0.0000 H       1  UNL1        0.0271
     41 H           6.3626    1.6074    0.0000 H       1  UNL1        0.0271
     42 H           8.2594   -1.2245    0.0000 H       1  UNL1        0.0290
     43 H           8.9497   -0.8260    0.0000 H       1  UNL1        0.0290
     44 H           9.3671    0.4981    0.0000 H       1  UNL1        0.0235
     45 H           9.9871    1.1181    0.0000 H       1  UNL1        0.0235
     46 H           9.3671    1.7381    0.0000 H       1  UNL1        0.0235
     47 H           7.4523    3.5290    0.0000 H       1  UNL1        0.0310
     48 H           6.7626    3.1272    0.0000 H       1  UNL1        0.0310
     49 H           5.7890    0.3347    0.0000 H       1  UNL1        0.0567
     50 H           5.3905   -0.3556    0.0000 H       1  UNL1        0.0567
     51 H           6.3110    1.2890    0.0000 H       1  UNL1        0.0237
     52 H           5.4641    1.0621    0.0000 H       1  UNL1        0.0237
     53 H           5.6910    0.2151    0.0000 H       1  UNL1        0.0237
     54 H           9.7869    1.3912    0.0000 H       1  UNL1        0.0274
     55 H          10.4818    1.7817    0.0000 H       1  UNL1        0.0274
     56 H           7.1771   -2.0169    0.0000 H       1  UNL1        0.2098
     57 H          10.5264    3.4700    0.0000 H       1  UNL1        0.0310
     58 H           9.8315    3.0794    0.0000 H       1  UNL1        0.0310
     59 H           9.5112    3.7798    0.0000 H       1  UNL1        0.0534
     60 H           8.5833    4.3203    0.0000 H       1  UNL1        0.0534
     61 H           5.1350   -1.1279    0.0000 H       1  UNL1        0.0937
     62 H           5.1350   -3.3679    0.0000 H       1  UNL1        0.0671
     63 H           3.7320   -3.5579    0.0000 H       1  UNL1        0.0648
     64 H           3.4030   -1.1279    0.0000 H       1  UNL1        0.0647
     65 H           2.8660   -2.4379    0.0000 H       1  UNL1        0.0647
     66 H          11.3610    1.6736    0.0000 H       1  UNL1        0.0274
     67 H          12.2053    1.4369    0.0000 H       1  UNL1        0.0274
     68 H          12.4420    2.2811    0.0000 H       1  UNL1        0.0274
     69 H          11.6178    4.2498    0.0000 H       1  UNL1        0.0594
     70 H           6.5380   -2.9379    0.0000 H       1  UNL1        0.2101
     71 H           1.9264   -1.1403    0.0000 H       1  UNL1        0.0584
     72 H           2.3249   -1.8305    0.0000 H       1  UNL1        0.0584
     73 H           3.7320   -4.5579    0.0000 H       1  UNL1        0.2100
     74 H          12.8068    3.0884    0.0000 H       1  UNL1        0.0601
     75 H          13.5016    3.4790    0.0000 H       1  UNL1        0.0601
     76 H           2.0000   -2.9379    0.0000 H       1  UNL1        0.2100
     77 H           2.0000    0.0621    0.0000 H       1  UNL1        0.2095
     78 H          14.0514    4.5508    0.0000 H       1  UNL1        0.2098
@<TRIPOS>BOND
     1     1    14    1
     2     1    56    1
     3     2    20    1
     4     2    25    1
     5     3    25    1
     6     3    29    1
     7     4    27    1
     8     4    70    1
     9     5    28    1
    10     5    73    1
    11     6    30    1
    12     6    76    1
    13     7    33    1
    14     7    77    1
    15     8    34    1
    16     8    78    1
    17     9    10    1
    18     9    12    1
    19     9    13    1
    20     9    17    1
    21    10    11    1
    22    10    15    1
    23    10    35    1
    24    11    14    1
    25    11    20    1
    26    11    21    1
    27    12    19    1
    28    12    22    1
    29    12    36    1
    30    13    16    1
    31    13    37    1
    32    13    38    1
    33    14    16    1
    34    14    39    1
    35    15    18    1
    36    15    40    1
    37    15    41    1
    38    16    42    1
    39    16    43    1
    40    17    44    1
    41    17    45    1
    42    17    46    1
    43    18    19    1
    44    18    47    1
    45    18    48    1
    46    19    24    2
    47    20    49    1
    48    20    50    1
    49    21    51    1
    50    21    52    1
    51    21    53    1
    52    22    23    1
    53    22    54    1
    54    22    55    1
    55    23    26    1
    56    23    57    1
    57    23    58    1
    58    24    59    1
    59    24    60    1
    60    25    27    1
    61    25    61    1
    62    26    31    1
    63    26    32    2
    64    27    28    1
    65    27    62    1
    66    28    30    1
    67    28    63    1
    68    29    30    1
    69    29    33    1
    70    29    64    1
    71    30    65    1
    72    31    66    1
    73    31    67    1
    74    31    68    1
    75    32    34    1
    76    32    69    1
    77    33    71    1
    78    33    72    1
    79    34    74    1
    80    34    75    1
