@<TRIPOS>MOLECULE
IMPHY000986
 37 41 0 0 0
SMALL
GASTEIGER

@<TRIPOS>ATOM
      1 O           2.8652   -2.5014    0.0000 O.3     1  UNL1       -0.3521
      2 O           3.5617   -0.0278    0.0000 O.3     1  UNL1       -0.4547
      3 O           5.9438   -2.2435    0.0000 O.3     1  UNL1       -0.3869
      4 O           7.9936   -0.3615    0.0000 O.3     1  UNL1       -0.4567
      5 O           2.0000   -0.8318    0.0000 O.2     1  UNL1       -0.2474
      6 O           8.2348   -2.1935    0.0000 O.2     1  UNL1       -0.2504
      7 C           4.2858   -1.1251    0.0000 C.3     1  UNL1        0.0798
      8 C           3.5040   -1.7391    0.0000 C.3     1  UNL1        0.2032
      9 C           5.1148   -1.6843    0.0000 C.3     1  UNL1        0.0942
     10 C           3.8448   -2.6730    0.0000 C.3     1  UNL1        0.1030
     11 C           4.5614   -0.1638    0.0000 C.3     1  UNL1        0.1516
     12 C           4.8383   -2.6391    0.0000 C.3     1  UNL1        0.0073
     13 C           6.3358   -0.8186    0.0000 C.3     1  UNL1        0.0958
     14 C           6.5947    0.1473    0.0000 C.3     1  UNL1        0.1477
     15 C           5.8580    1.1299    0.0000 C.3     1  UNL1        0.0358
     16 C           2.9994   -0.8655    0.0000 C.2     1  UNL1        0.3432
     17 C           4.0101   -2.0864    0.0000 C.3     1  UNL1       -0.0501
     18 C           7.7348   -1.3274    0.0000 C.2     1  UNL1        0.3141
     19 C           5.3580    1.9959    0.0000 C.2     1  UNL1       -0.0721
     20 C           5.8580    2.8620    0.0000 C.3     1  UNL1       -0.0436
     21 C           4.3580    1.9959    0.0000 C.2     1  UNL1       -0.0993
     22 H           3.7856   -3.5209    0.0000 H       1  UNL1        0.0632
     23 H           4.7957    0.6532    0.0000 H       1  UNL1        0.0779
     24 H           4.7942   -3.2576    0.0000 H       1  UNL1        0.0319
     25 H           5.4487   -2.7480    0.0000 H       1  UNL1        0.0319
     26 H           6.1158   -1.6397    0.0000 H       1  UNL1        0.0449
     27 H           6.8146    0.9683    0.0000 H       1  UNL1        0.0778
     28 H           6.3755    1.4715    0.0000 H       1  UNL1        0.0392
     29 H           3.4142   -1.9155    0.0000 H       1  UNL1        0.0238
     30 H           3.8392   -2.6823    0.0000 H       1  UNL1        0.0238
     31 H           4.6061   -2.2572    0.0000 H       1  UNL1        0.0238
     32 H           5.9006   -2.8620    0.0000 H       1  UNL1        0.2102
     33 H           6.3950    2.5520    0.0000 H       1  UNL1        0.0274
     34 H           6.1680    3.3989    0.0000 H       1  UNL1        0.0274
     35 H           5.3211    3.1720    0.0000 H       1  UNL1        0.0274
     36 H           4.0480    2.5329    0.0000 H       1  UNL1        0.0534
     37 H           4.0480    1.4590    0.0000 H       1  UNL1        0.0534
@<TRIPOS>BOND
     1     8     1    1
     2     1    10    1
     3     2    11    1
     4     2    16    1
     5     9     3    1
     6     3    32    1
     7     4    14    1
     8     4    18    1
     9     5    16    2
    10     6    18    2
    11     7     8    1
    12     7     9    1
    13     7    11    1
    14     7    17    1
    15     8    10    1
    16     8    16    1
    17     9    12    1
    18     9    13    1
    19    10    12    1
    20    10    22    1
    21    11    14    1
    22    11    23    1
    23    12    24    1
    24    12    25    1
    25    13    15    1
    26    13    18    1
    27    13    26    1
    28    14    15    1
    29    14    27    1
    30    15    19    1
    31    15    28    1
    32    17    29    1
    33    17    30    1
    34    17    31    1
    35    19    20    1
    36    19    21    2
    37    20    33    1
    38    20    34    1
    39    20    35    1
    40    21    36    1
    41    21    37    1
