@<TRIPOS>MOLECULE
IMPHY003005
 63 67 0 0 0
SMALL
GASTEIGER

@<TRIPOS>ATOM
      1 O           7.9288   -1.6474    0.0000 O.3     1  UNL1       -0.3877
      2 O           5.2710   -3.1958    0.0000 O.3     1  UNL1       -0.3879
      3 O           4.4323    0.3524    0.0000 O.3     1  UNL1       -0.3944
      4 O           2.5357   -2.6997    0.0000 O.3     1  UNL1       -0.3917
      5 O           9.1885    3.2259    0.0000 O.3     1  UNL1       -0.4571
      6 O          10.9491    3.5016    0.0000 O.2     1  UNL1       -0.2456
      7 C           7.0628   -1.1474    0.0000 C.3     1  UNL1       -0.0080
      8 C           7.9288   -0.6474    0.0000 C.3     1  UNL1        0.0751
      9 C           6.1968   -0.6474    0.0000 C.3     1  UNL1       -0.0252
     10 C           7.9288    0.3526    0.0000 C.3     1  UNL1        0.0036
     11 C           5.2868   -1.1542    0.0000 C.3     1  UNL1        0.0259
     12 C           5.2787   -2.1958    0.0000 C.3     1  UNL1        0.0764
     13 C           6.1968    0.3526    0.0000 C.3     1  UNL1       -0.0486
     14 C           7.0628    0.8526    0.0000 C.3     1  UNL1       -0.0442
     15 C           8.8750    0.6574    0.0000 C.3     1  UNL1       -0.0081
     16 C           7.0789   -2.1889    0.0000 C.3     1  UNL1       -0.0447
     17 C           8.8750   -0.9521    0.0000 C.3     1  UNL1       -0.0226
     18 C           6.1808   -2.7166    0.0000 C.3     1  UNL1       -0.0230
     19 C           9.4586   -0.1474    0.0000 C.3     1  UNL1       -0.0432
     20 C           4.3599   -0.5901    0.0000 C.3     1  UNL1       -0.0401
     21 C           4.3433   -2.7455    0.0000 C.3     1  UNL1        0.0027
     22 C           7.9288    1.3526    0.0000 C.3     1  UNL1       -0.0564
     23 C           5.2945   -0.1542    0.0000 C.3     1  UNL1        0.0527
     24 C           3.4120   -1.1181    0.0000 C.3     1  UNL1       -0.0261
     25 C           3.4037   -2.2030    0.0000 C.3     1  UNL1        0.0579
     26 C           9.1857    1.6079    0.0000 C.2     1  UNL1       -0.0222
     27 C           8.5993    2.4179    0.0000 C.3     1  UNL1        0.1147
     28 C          10.1373    1.9152    0.0000 C.2     1  UNL1        0.0252
     29 C          10.1390    2.9152    0.0000 C.2     1  UNL1        0.3323
     30 H           7.8022   -1.5667    0.0000 H       1  UNL1        0.0331
     31 H           6.9329   -0.2224    0.0000 H       1  UNL1        0.0311
     32 H           5.9847    0.9352    0.0000 H       1  UNL1        0.0268
     33 H           5.5862    0.2450    0.0000 H       1  UNL1        0.0268
     34 H           7.4613    1.3276    0.0000 H       1  UNL1        0.0272
     35 H           6.6643    1.3276    0.0000 H       1  UNL1        0.0272
     36 H           9.4875    0.7536    0.0000 H       1  UNL1        0.0353
     37 H           7.2969   -2.7693    0.0000 H       1  UNL1        0.0270
     38 H           7.6880   -2.0734    0.0000 H       1  UNL1        0.0270
     39 H           8.6240   -1.5190    0.0000 H       1  UNL1        0.0293
     40 H           9.4124   -1.2613    0.0000 H       1  UNL1        0.0293
     41 H           5.7835   -3.1926    0.0000 H       1  UNL1        0.0293
     42 H           6.5818   -3.1895    0.0000 H       1  UNL1        0.0293
     43 H           9.9195   -0.5621    0.0000 H       1  UNL1        0.0272
     44 H           9.9195    0.2674    0.0000 H       1  UNL1        0.0272
     45 H           4.7681   -0.1235    0.0000 H       1  UNL1        0.0273
     46 H           3.9700   -0.1081    0.0000 H       1  UNL1        0.0273
     47 H           3.9460   -3.2215    0.0000 H       1  UNL1        0.0318
     48 H           4.7443   -3.2184    0.0000 H       1  UNL1        0.0318
     49 H           8.5488    1.3526    0.0000 H       1  UNL1        0.0236
     50 H           7.9288    1.9726    0.0000 H       1  UNL1        0.0236
     51 H           7.3088    1.3526    0.0000 H       1  UNL1        0.0236
     52 H           5.9042   -0.2666    0.0000 H       1  UNL1        0.0564
     53 H           5.5110    0.4267    0.0000 H       1  UNL1        0.0564
     54 H           3.2075   -0.5328    0.0000 H       1  UNL1        0.0290
     55 H           2.8004   -1.2195    0.0000 H       1  UNL1        0.0290
     56 H           3.4025   -2.8230    0.0000 H       1  UNL1        0.0594
     57 H           8.4658   -1.9574    0.0000 H       1  UNL1        0.2102
     58 H           4.7317   -3.5016    0.0000 H       1  UNL1        0.2102
     59 H           8.1393    2.8336    0.0000 H       1  UNL1        0.0746
     60 H           8.1378    2.0038    0.0000 H       1  UNL1        0.0746
     61 H           4.4371    0.9724    0.0000 H       1  UNL1        0.2094
     62 H          10.6383    1.5500    0.0000 H       1  UNL1        0.0689
     63 H           2.0000   -2.3876    0.0000 H       1  UNL1        0.2098
@<TRIPOS>BOND
     1     8     1    1
     2     1    57    1
     3    12     2    1
     4     2    58    1
     5     3    23    1
     6     3    61    1
     7    25     4    1
     8     4    63    1
     9     5    27    1
    10     5    29    1
    11     6    29    2
    12     7     8    1
    13     7     9    1
    14     7    16    1
    15     7    30    1
    16     8    10    1
    17     8    17    1
    18     9    11    1
    19     9    13    1
    20     9    31    1
    21    10    14    1
    22    10    15    1
    23    10    22    1
    24    11    12    1
    25    11    20    1
    26    11    23    1
    27    12    18    1
    28    12    21    1
    29    13    14    1
    30    13    32    1
    31    13    33    1
    32    14    34    1
    33    14    35    1
    34    15    19    1
    35    15    26    1
    36    15    36    1
    37    16    18    1
    38    16    37    1
    39    16    38    1
    40    17    19    1
    41    17    39    1
    42    17    40    1
    43    18    41    1
    44    18    42    1
    45    19    43    1
    46    19    44    1
    47    20    24    1
    48    20    45    1
    49    20    46    1
    50    21    25    1
    51    21    47    1
    52    21    48    1
    53    22    49    1
    54    22    50    1
    55    22    51    1
    56    23    52    1
    57    23    53    1
    58    24    25    1
    59    24    54    1
    60    24    55    1
    61    25    56    1
    62    26    27    1
    63    26    28    2
    64    27    59    1
    65    27    60    1
    66    28    29    1
    67    28    62    1
