@<TRIPOS>MOLECULE
IMPHY000783
 69 72 0 0 0
SMALL
GASTEIGER

@<TRIPOS>ATOM
      1 O           6.8671    1.0000    0.0000 O.3     1  UNL1       -0.3300
      2 O           6.8671   -2.0000    0.0000 O.3     1  UNL1       -0.4523
      3 O           5.1350   -1.0000    0.0000 O.3     1  UNL1       -0.3853
      4 O           8.5991   -1.0000    0.0000 O.3     1  UNL1       -0.3818
      5 O           8.5991    1.0000    0.0000 O.3     1  UNL1       -0.4287
      6 O           5.1350    2.0000    0.0000 O.3     1  UNL1       -0.4584
      7 O           5.1350   -2.0000    0.0000 O.2     1  UNL1       -0.2449
      8 O           7.7331    2.5000    0.0000 O.2     1  UNL1       -0.2449
      9 O           3.4030    2.0000    0.0000 O.2     1  UNL1       -0.2450
     10 O           7.7331   -5.5000    0.0000 O.3     1  UNL1       -0.5032
     11 O           4.2690   -5.5000    0.0000 O.3     1  UNL1       -0.5032
     12 O           6.0010   -6.5000    0.0000 O.3     1  UNL1       -0.5009
     13 O          10.3312    5.0000    0.0000 O.3     1  UNL1       -0.5032
     14 O          12.0632    2.0000    0.0000 O.3     1  UNL1       -0.5032
     15 O          12.0632    4.0000    0.0000 O.3     1  UNL1       -0.5009
     16 O           2.5369    5.5000    0.0000 O.3     1  UNL1       -0.5032
     17 O           6.0010    5.5000    0.0000 O.3     1  UNL1       -0.5032
     18 O           4.2690    6.5000    0.0000 O.3     1  UNL1       -0.5009
     19 C           6.8671   -1.0000    0.0000 C.3     1  UNL1        0.1631
     20 C           6.0010   -0.5000    0.0000 C.3     1  UNL1        0.1241
     21 C           6.0010    0.5000    0.0000 C.3     1  UNL1        0.1260
     22 C           7.7331   -0.5000    0.0000 C.3     1  UNL1        0.1565
     23 C           7.7331    0.5000    0.0000 C.3     1  UNL1        0.2352
     24 C           5.1350    1.0000    0.0000 C.3     1  UNL1        0.1216
     25 C           6.0010   -2.5000    0.0000 C.2     1  UNL1        0.3398
     26 C           8.5991    2.0000    0.0000 C.2     1  UNL1        0.3417
     27 C           6.0010   -3.5000    0.0000 C.ar    1  UNL1        0.0661
     28 C           4.2690    2.5000    0.0000 C.2     1  UNL1        0.3395
     29 C           9.4651    2.5000    0.0000 C.ar    1  UNL1        0.0662
     30 C           4.2690    3.5000    0.0000 C.ar    1  UNL1        0.0661
     31 C           5.1350   -4.0000    0.0000 C.ar    1  UNL1       -0.0023
     32 C           6.8671   -4.0000    0.0000 C.ar    1  UNL1       -0.0023
     33 C          10.3312    2.0000    0.0000 C.ar    1  UNL1       -0.0023
     34 C           9.4651    3.5000    0.0000 C.ar    1  UNL1       -0.0023
     35 C           6.8671   -5.0000    0.0000 C.ar    1  UNL1        0.1628
     36 C           5.1350   -5.0000    0.0000 C.ar    1  UNL1        0.1628
     37 C           5.1350    4.0000    0.0000 C.ar    1  UNL1       -0.0023
     38 C           3.4030    4.0000    0.0000 C.ar    1  UNL1       -0.0023
     39 C           6.0010   -5.5000    0.0000 C.ar    1  UNL1        0.2006
     40 C          10.3312    4.0000    0.0000 C.ar    1  UNL1        0.1628
     41 C          11.1972    2.5000    0.0000 C.ar    1  UNL1        0.1628
     42 C          11.1972    3.5000    0.0000 C.ar    1  UNL1        0.2006
     43 C           3.4030    5.0000    0.0000 C.ar    1  UNL1        0.1628
     44 C           5.1350    5.0000    0.0000 C.ar    1  UNL1        0.1628
     45 C           4.2690    5.5000    0.0000 C.ar    1  UNL1        0.2006
     46 H           6.3301   -1.3100    0.0000 H       1  UNL1        0.0790
     47 H           6.0010   -1.1200    0.0000 H       1  UNL1        0.0658
     48 H           6.0010    1.1200    0.0000 H       1  UNL1        0.0659
     49 H           7.7331   -1.1200    0.0000 H       1  UNL1        0.0694
     50 H           7.7331    1.1200    0.0000 H       1  UNL1        0.1086
     51 H           4.5244    1.1077    0.0000 H       1  UNL1        0.0725
     52 H           4.9230    0.4174    0.0000 H       1  UNL1        0.0725
     53 H           4.5981   -0.6900    0.0000 H       1  UNL1        0.2101
     54 H           9.1360   -0.6900    0.0000 H       1  UNL1        0.2102
     55 H           4.5981   -3.6900    0.0000 H       1  UNL1        0.0663
     56 H           7.4040   -3.6900    0.0000 H       1  UNL1        0.0663
     57 H          10.3312    1.3800    0.0000 H       1  UNL1        0.0663
     58 H           8.9282    3.8100    0.0000 H       1  UNL1        0.0663
     59 H           5.6720    3.6900    0.0000 H       1  UNL1        0.0663
     60 H           2.8660    3.6900    0.0000 H       1  UNL1        0.0663
     61 H           8.2700   -5.1900    0.0000 H       1  UNL1        0.2923
     62 H           3.7320   -5.1900    0.0000 H       1  UNL1        0.2923
     63 H           5.4641   -6.8100    0.0000 H       1  UNL1        0.2924
     64 H           9.7942    5.3100    0.0000 H       1  UNL1        0.2923
     65 H          12.0632    1.3800    0.0000 H       1  UNL1        0.2923
     66 H          12.6002    3.6900    0.0000 H       1  UNL1        0.2924
     67 H           2.0000    5.1900    0.0000 H       1  UNL1        0.2923
     68 H           6.0010    6.1200    0.0000 H       1  UNL1        0.2923
     69 H           3.7320    6.8100    0.0000 H       1  UNL1        0.2924
@<TRIPOS>BOND
     1     1    21    1
     2     1    23    1
     3    19     2    1
     4     2    25    1
     5    20     3    1
     6     3    53    1
     7    22     4    1
     8     4    54    1
     9    23     5    1
    10     5    26    1
    11     6    24    1
    12     6    28    1
    13     7    25    2
    14     8    26    2
    15     9    28    2
    16    10    35    1
    17    10    61    1
    18    11    36    1
    19    11    62    1
    20    12    39    1
    21    12    63    1
    22    13    40    1
    23    13    64    1
    24    14    41    1
    25    14    65    1
    26    15    42    1
    27    15    66    1
    28    16    43    1
    29    16    67    1
    30    17    44    1
    31    17    68    1
    32    18    45    1
    33    18    69    1
    34    19    20    1
    35    19    22    1
    36    19    46    1
    37    20    21    1
    38    20    47    1
    39    21    24    1
    40    21    48    1
    41    22    23    1
    42    22    49    1
    43    23    50    1
    44    24    51    1
    45    24    52    1
    46    25    27    1
    47    26    29    1
    48    27    31   ar
    49    27    32   ar
    50    28    30    1
    51    29    33   ar
    52    29    34   ar
    53    30    37   ar
    54    30    38   ar
    55    31    36   ar
    56    31    55    1
    57    32    35   ar
    58    32    56    1
    59    33    41   ar
    60    33    57    1
    61    34    40   ar
    62    34    58    1
    63    35    39   ar
    64    36    39   ar
    65    37    44   ar
    66    37    59    1
    67    38    43   ar
    68    38    60    1
    69    40    42   ar
    70    41    42   ar
    71    43    45   ar
    72    44    45   ar
