@<TRIPOS>MOLECULE
IMPHY016686
 33 32 0 0 0
SMALL
GASTEIGER

@<TRIPOS>ATOM
      1 S           4.5981   -0.5000    0.0000 S.3     1  UNL1       -0.1606
      2 O           7.1962    1.0000    0.0000 O.3     1  UNL1       -0.4646
      3 O           8.0622   -0.5000    0.0000 O.2     1  UNL1       -0.2509
      4 C           4.5981    0.5000    0.0000 C.3     1  UNL1        0.0081
      5 C           3.7320    1.0000    0.0000 C.3     1  UNL1       -0.0413
      6 C           5.4641    1.0000    0.0000 C.3     1  UNL1       -0.0067
      7 C           2.8660    0.5000    0.0000 C.3     1  UNL1       -0.0549
      8 C           6.3301    0.5000    0.0000 C.3     1  UNL1        0.0935
      9 C           2.0000    1.0000    0.0000 C.3     1  UNL1       -0.0652
     10 C           3.7320   -1.0000    0.0000 C.3     1  UNL1       -0.0178
     11 C           8.0622    0.5000    0.0000 C.2     1  UNL1        0.3068
     12 C           8.9282    1.0000    0.0000 C.3     1  UNL1        0.0421
     13 C           9.7942    0.5000    0.0000 C.3     1  UNL1       -0.0552
     14 H           5.1350    0.1900    0.0000 H       1  UNL1        0.0413
     15 H           4.1306    1.4750    0.0000 H       1  UNL1        0.0276
     16 H           3.3335    1.4750    0.0000 H       1  UNL1        0.0276
     17 H           5.8626    1.4750    0.0000 H       1  UNL1        0.0309
     18 H           5.0656    1.4750    0.0000 H       1  UNL1        0.0309
     19 H           2.4675    0.0251    0.0000 H       1  UNL1        0.0263
     20 H           3.2646    0.0251    0.0000 H       1  UNL1        0.0263
     21 H           5.9316    0.0251    0.0000 H       1  UNL1        0.0698
     22 H           6.7287    0.0251    0.0000 H       1  UNL1        0.0698
     23 H           2.3100    1.5369    0.0000 H       1  UNL1        0.0230
     24 H           1.4631    1.3100    0.0000 H       1  UNL1        0.0230
     25 H           1.6900    0.4631    0.0000 H       1  UNL1        0.0230
     26 H           3.4220   -0.4631    0.0000 H       1  UNL1        0.0341
     27 H           3.1951   -1.3100    0.0000 H       1  UNL1        0.0341
     28 H           4.0420   -1.5369    0.0000 H       1  UNL1        0.0341
     29 H           9.3267    1.4750    0.0000 H       1  UNL1        0.0375
     30 H           8.5297    1.4750    0.0000 H       1  UNL1        0.0375
     31 H           9.4842   -0.0369    0.0000 H       1  UNL1        0.0235
     32 H          10.3312    0.1900    0.0000 H       1  UNL1        0.0235
     33 H          10.1042    1.0369    0.0000 H       1  UNL1        0.0235
@<TRIPOS>BOND
     1     1     4    1
     2     1    10    1
     3     2     8    1
     4     2    11    1
     5     3    11    2
     6     4     5    1
     7     4     6    1
     8     4    14    1
     9     5     7    1
    10     5    15    1
    11     5    16    1
    12     6     8    1
    13     6    17    1
    14     6    18    1
    15     7     9    1
    16     7    19    1
    17     7    20    1
    18     8    21    1
    19     8    22    1
    20     9    23    1
    21     9    24    1
    22     9    25    1
    23    10    26    1
    24    10    27    1
    25    10    28    1
    26    11    12    1
    27    12    13    1
    28    12    29    1
    29    12    30    1
    30    13    31    1
    31    13    32    1
    32    13    33    1
