@<TRIPOS>MOLECULE
IMPHY013403
 52 55 0 0 0
SMALL
GASTEIGER

@<TRIPOS>ATOM
      1 O           5.1350   -2.0289    0.0000 O.3     1  UNL1       -0.3313
      2 O           6.8671   -2.0289    0.0000 O.3     1  UNL1       -0.4607
      3 O           5.1350   -5.0289    0.0000 O.3     1  UNL1       -0.3864
      4 O           3.4030   -4.0289    0.0000 O.3     1  UNL1       -0.3865
      5 O           6.8671   -4.0289    0.0000 O.3     1  UNL1       -0.3829
      6 O           2.5369   -2.5289    0.0000 O.3     1  UNL1       -0.3924
      7 O           8.6230    1.0336    0.0000 O.2     1  UNL1       -0.4545
      8 O           6.0308    2.5436    0.0000 O.2     1  UNL1       -0.2870
      9 O          10.3705    5.0269    0.0000 O.3     1  UNL1       -0.5032
     10 O          12.0910    2.0202    0.0000 O.3     1  UNL1       -0.5032
     11 O          12.0987    4.0202    0.0000 O.3     1  UNL1       -0.5009
     12 C           5.1350   -4.0289    0.0000 C.3     1  UNL1        0.1152
     13 C           4.2690   -3.5289    0.0000 C.3     1  UNL1        0.1120
     14 C           6.0010   -3.5289    0.0000 C.3     1  UNL1        0.1454
     15 C           4.2690   -2.5289    0.0000 C.3     1  UNL1        0.1140
     16 C           6.0010   -2.5289    0.0000 C.3     1  UNL1        0.2308
     17 C           3.4030   -2.0289    0.0000 C.3     1  UNL1        0.0731
     18 C           6.8671   -1.0289    0.0000 C.ar    1  UNL1        0.1275
     19 C           7.7671   -0.5046    0.0000 C.ar    1  UNL1        0.0232
     20 C           5.9670   -0.5046    0.0000 C.ar    1  UNL1       -0.0189
     21 C           7.7551    0.5369    0.0000 C.ar    1  UNL1        0.1427
     22 C           6.8910    1.0402    0.0000 C.ar    1  UNL1        0.0642
     23 C           5.9790    0.5369    0.0000 C.ar    1  UNL1       -0.0439
     24 C           6.8948    2.0402    0.0000 C.ar    1  UNL1        0.1931
     25 C           8.6269    2.0336    0.0000 C.ar    1  UNL1        0.1395
     26 C           7.7628    2.5369    0.0000 C.ar    1  UNL1        0.0287
     27 C           9.4948    2.5302    0.0000 C.ar    1  UNL1        0.0245
     28 C          10.3589    2.0269    0.0000 C.ar    1  UNL1       -0.0056
     29 C           9.4987    3.5302    0.0000 C.ar    1  UNL1       -0.0056
     30 C          10.3666    4.0269    0.0000 C.ar    1  UNL1        0.1626
     31 C          11.2269    2.5236    0.0000 C.ar    1  UNL1        0.1626
     32 C          11.2307    3.5235    0.0000 C.ar    1  UNL1        0.2006
     33 H           5.6720   -4.3389    0.0000 H       1  UNL1        0.0648
     34 H           3.7320   -3.2189    0.0000 H       1  UNL1        0.0647
     35 H           6.5380   -3.2189    0.0000 H       1  UNL1        0.0683
     36 H           4.2690   -1.9089    0.0000 H       1  UNL1        0.0647
     37 H           6.0010   -1.9089    0.0000 H       1  UNL1        0.1084
     38 H           3.8015   -1.5540    0.0000 H       1  UNL1        0.0584
     39 H           3.0044   -1.5540    0.0000 H       1  UNL1        0.0584
     40 H           4.5981   -5.3389    0.0000 H       1  UNL1        0.2100
     41 H           3.4030   -4.6489    0.0000 H       1  UNL1        0.2100
     42 H           7.4040   -3.7189    0.0000 H       1  UNL1        0.2102
     43 H           2.0000   -2.2189    0.0000 H       1  UNL1        0.2095
     44 H           8.3064   -0.8105    0.0000 H       1  UNL1        0.0691
     45 H           5.4277   -0.8105    0.0000 H       1  UNL1        0.0654
     46 H           5.4470    0.8552    0.0000 H       1  UNL1        0.0627
     47 H           7.7652    3.1569    0.0000 H       1  UNL1        0.0693
     48 H          10.3565    1.4069    0.0000 H       1  UNL1        0.0662
     49 H           8.9630    3.8423    0.0000 H       1  UNL1        0.0662
     50 H           9.8348    5.3389    0.0000 H       1  UNL1        0.2923
     51 H          12.0886    1.4002    0.0000 H       1  UNL1        0.2923
     52 H          12.1011    4.6402    0.0000 H       1  UNL1        0.2924
@<TRIPOS>BOND
     1     1    15    1
     2     1    16    1
     3    16     2    1
     4     2    18    1
     5    12     3    1
     6     3    40    1
     7    13     4    1
     8     4    41    1
     9     5    14    1
    10     5    42    1
    11     6    17    1
    12     6    43    1
    13     7    21   ar
    14     7    25   ar
    15     8    24    2
    16     9    30    1
    17     9    50    1
    18    10    31    1
    19    10    51    1
    20    11    32    1
    21    11    52    1
    22    12    13    1
    23    12    14    1
    24    12    33    1
    25    13    15    1
    26    13    34    1
    27    14    16    1
    28    14    35    1
    29    15    17    1
    30    15    36    1
    31    16    37    1
    32    17    38    1
    33    17    39    1
    34    18    19   ar
    35    18    20   ar
    36    19    21   ar
    37    19    44    1
    38    20    23   ar
    39    20    45    1
    40    21    22   ar
    41    22    23   ar
    42    22    24   ar
    43    23    46    1
    44    24    26   ar
    45    25    26   ar
    46    25    27    1
    47    26    47    1
    48    27    28   ar
    49    27    29   ar
    50    28    31   ar
    51    28    48    1
    52    29    30   ar
    53    29    49    1
    54    30    32   ar
    55    31    32   ar
