@<TRIPOS>MOLECULE
IMPHY009936
 63 65 0 0 0
SMALL
GASTEIGER

@<TRIPOS>ATOM
      1 O           8.1301   -2.4182    0.0000 O.2     1  UNL1       -0.4542
      2 O          11.6602   -0.3941    0.0000 O.3     1  UNL1       -0.4908
      3 O           4.6000   -2.4424    0.0000 O.3     1  UNL1       -0.4946
      4 O           6.3817    0.6164    0.0000 O.3     1  UNL1       -0.5055
      5 O           8.1301    0.5818    0.0000 O.2     1  UNL1       -0.2863
      6 O          11.6602   -2.4424    0.0000 O.3     1  UNL1       -0.4913
      7 O          10.7156    3.1262    0.0000 O.3     1  UNL1       -0.3851
      8 C           8.9961   -0.9182    0.0000 C.ar    1  UNL1        0.0755
      9 C           7.2641   -0.9182    0.0000 C.ar    1  UNL1        0.1064
     10 C           9.8901   -0.3836    0.0000 C.ar    1  UNL1        0.0344
     11 C           7.2641   -1.9182    0.0000 C.ar    1  UNL1        0.1463
     12 C           8.9961   -1.9182    0.0000 C.ar    1  UNL1        0.1435
     13 C           8.1301   -0.4182    0.0000 C.ar    1  UNL1        0.2044
     14 C           5.4641   -0.8974    0.0000 C.ar    1  UNL1        0.0402
     15 C           6.3701   -0.3836    0.0000 C.ar    1  UNL1        0.1381
     16 C          10.7961   -0.8974    0.0000 C.ar    1  UNL1        0.1695
     17 C           5.4641   -1.9391    0.0000 C.ar    1  UNL1        0.1305
     18 C           6.3701   -2.4529    0.0000 C.ar    1  UNL1        0.0236
     19 C           4.6000   -0.3941    0.0000 C.3     1  UNL1       -0.0023
     20 C          10.7271    2.1263    0.0000 C.3     1  UNL1        0.0789
     21 C           9.8901   -2.4529    0.0000 C.ar    1  UNL1        0.0268
     22 C           9.8785    0.6164    0.0000 C.2     1  UNL1       -0.0514
     23 C          10.7961   -1.9391    0.0000 C.ar    1  UNL1        0.1656
     24 C          10.7387    1.1263    0.0000 C.2     1  UNL1       -0.0527
     25 C          11.7271    2.1378    0.0000 C.3     1  UNL1       -0.0327
     26 C           9.7272    2.1147    0.0000 C.3     1  UNL1       -0.0327
     27 C           3.7320   -0.8908    0.0000 C.2     1  UNL1       -0.0807
     28 C           2.8680   -0.3874    0.0000 C.2     1  UNL1       -0.0793
     29 C          12.5282   -0.8908    0.0000 C.3     1  UNL1        0.0790
     30 C           4.6038   -3.4424    0.0000 C.3     1  UNL1        0.0788
     31 C           2.0000   -0.8841    0.0000 C.3     1  UNL1       -0.0440
     32 C           2.8718    0.6126    0.0000 C.3     1  UNL1       -0.0440
     33 C          11.6564   -3.4424    0.0000 C.3     1  UNL1        0.0790
     34 H           6.3773   -3.0729    0.0000 H       1  UNL1        0.0691
     35 H           5.0003    0.0793    0.0000 H       1  UNL1        0.0358
     36 H           4.2033    0.0824    0.0000 H       1  UNL1        0.0358
     37 H           9.8829   -3.0729    0.0000 H       1  UNL1        0.0692
     38 H           9.3380    0.9201    0.0000 H       1  UNL1        0.0623
     39 H          11.2792    0.8226    0.0000 H       1  UNL1        0.0600
     40 H           9.7200    2.7347    0.0000 H       1  UNL1        0.0260
     41 H           9.1072    2.1075    0.0000 H       1  UNL1        0.0260
     42 H           9.7344    1.4947    0.0000 H       1  UNL1        0.0260
     43 H          11.7342    1.5179    0.0000 H       1  UNL1        0.0260
     44 H          12.3470    2.1450    0.0000 H       1  UNL1        0.0260
     45 H          11.7199    2.7578    0.0000 H       1  UNL1        0.0260
     46 H           3.7296   -1.5108    0.0000 H       1  UNL1        0.0575
     47 H           5.8484    0.9325    0.0000 H       1  UNL1        0.2922
     48 H          11.2489    3.4424    0.0000 H       1  UNL1        0.2106
     49 H          12.2203   -1.4289    0.0000 H       1  UNL1        0.0660
     50 H          13.0663   -1.1987    0.0000 H       1  UNL1        0.0660
     51 H          12.8361   -0.3526    0.0000 H       1  UNL1        0.0660
     52 H           3.9838   -3.4448    0.0000 H       1  UNL1        0.0660
     53 H           4.6062   -4.0624    0.0000 H       1  UNL1        0.0660
     54 H           5.2238   -3.4400    0.0000 H       1  UNL1        0.0660
     55 H           1.6921   -0.3459    0.0000 H       1  UNL1        0.0274
     56 H           3.4918    0.6102    0.0000 H       1  UNL1        0.0274
     57 H           2.8742    1.2326    0.0000 H       1  UNL1        0.0274
     58 H           2.2518    0.6150    0.0000 H       1  UNL1        0.0274
     59 H           1.4619   -1.1920    0.0000 H       1  UNL1        0.0274
     60 H           2.3079   -1.4222    0.0000 H       1  UNL1        0.0274
     61 H          11.0364   -3.4400    0.0000 H       1  UNL1        0.0660
     62 H          11.6540   -4.0624    0.0000 H       1  UNL1        0.0660
     63 H          12.2764   -3.4448    0.0000 H       1  UNL1        0.0660
@<TRIPOS>BOND
     1     1    11   ar
     2     1    12   ar
     3     2    16    1
     4     2    29    1
     5     3    17    1
     6     3    30    1
     7     4    15    1
     8     4    47    1
     9     5    13    2
    10     6    23    1
    11     6    33    1
    12     7    20    1
    13     7    48    1
    14     8    10   ar
    15     8    12   ar
    16     8    13   ar
    17     9    11   ar
    18     9    13   ar
    19     9    15   ar
    20    10    16   ar
    21    10    22    1
    22    11    18   ar
    23    12    21   ar
    24    14    15   ar
    25    14    17   ar
    26    14    19    1
    27    16    23   ar
    28    17    18   ar
    29    18    34    1
    30    19    27    1
    31    19    35    1
    32    19    36    1
    33    20    24    1
    34    20    25    1
    35    20    26    1
    36    21    23   ar
    37    21    37    1
    38    22    24    2
    39    22    38    1
    40    24    39    1
    41    25    43    1
    42    25    44    1
    43    25    45    1
    44    26    40    1
    45    26    41    1
    46    26    42    1
    47    27    28    2
    48    27    46    1
    49    28    31    1
    50    28    32    1
    51    29    49    1
    52    29    50    1
    53    29    51    1
    54    30    52    1
    55    30    53    1
    56    30    54    1
    57    31    55    1
    58    31    59    1
    59    31    60    1
    60    32    56    1
    61    32    57    1
    62    32    58    1
    63    33    61    1
    64    33    62    1
    65    33    63    1
