@<TRIPOS>MOLECULE
IMPHY001382
 42 43 0 0 0
SMALL
GASTEIGER

@<TRIPOS>ATOM
      1 O           5.4641   -2.0000    0.0000 O.2     1  UNL1       -0.2974
      2 C           5.4641    1.0000    0.0000 C.3     1  UNL1       -0.0286
      3 C           5.4641    0.0000    0.0000 C.3     1  UNL1       -0.0259
      4 C           4.5981   -0.5000    0.0000 C.3     1  UNL1        0.0236
      5 C           3.7320    0.0000    0.0000 C.3     1  UNL1       -0.0289
      6 C           4.5981    1.5000    0.0000 C.3     1  UNL1       -0.0471
      7 C           6.4103    1.3047    0.0000 C.3     1  UNL1       -0.0473
      8 C           6.4103   -0.3047    0.0000 C.3     1  UNL1       -0.0490
      9 C           3.7320    1.0000    0.0000 C.3     1  UNL1       -0.0488
     10 C           6.9939    0.5000    0.0000 C.3     1  UNL1       -0.0523
     11 C           5.4641    2.0000    0.0000 C.3     1  UNL1       -0.0593
     12 C           2.8660   -0.5000    0.0000 C.3     1  UNL1       -0.0432
     13 C           4.5981   -1.5000    0.0000 C.2     1  UNL1        0.1339
     14 C           2.0000    0.0000    0.0000 C.3     1  UNL1       -0.0624
     15 C           2.8660   -1.5000    0.0000 C.3     1  UNL1       -0.0624
     16 C           3.7320   -2.0000    0.0000 C.3     1  UNL1       -0.0058
     17 H           5.5540   -0.8452    0.0000 H       1  UNL1        0.0313
     18 H           5.1350   -0.8100    0.0000 H       1  UNL1        0.0383
     19 H           3.1951    0.3100    0.0000 H       1  UNL1        0.0310
     20 H           4.9966    1.9750    0.0000 H       1  UNL1        0.0271
     21 H           4.1996    1.9750    0.0000 H       1  UNL1        0.0271
     22 H           6.9477    1.6140    0.0000 H       1  UNL1        0.0271
     23 H           6.1593    1.8716    0.0000 H       1  UNL1        0.0271
     24 H           6.1593   -0.8716    0.0000 H       1  UNL1        0.0268
     25 H           6.9477   -0.6140    0.0000 H       1  UNL1        0.0268
     26 H           3.5200    1.5826    0.0000 H       1  UNL1        0.0268
     27 H           3.1215    0.8923    0.0000 H       1  UNL1        0.0268
     28 H           7.4548    0.0853    0.0000 H       1  UNL1        0.0266
     29 H           7.4548    0.9147    0.0000 H       1  UNL1        0.0266
     30 H           6.0841    2.0000    0.0000 H       1  UNL1        0.0235
     31 H           5.4641    2.6200    0.0000 H       1  UNL1        0.0235
     32 H           4.8441    2.0000    0.0000 H       1  UNL1        0.0235
     33 H           3.4030   -0.8100    0.0000 H       1  UNL1        0.0298
     34 H           2.3100    0.5369    0.0000 H       1  UNL1        0.0232
     35 H           1.4631    0.3100    0.0000 H       1  UNL1        0.0232
     36 H           2.2460   -1.5000    0.0000 H       1  UNL1        0.0232
     37 H           2.8660   -2.1200    0.0000 H       1  UNL1        0.0232
     38 H           1.6900   -0.5369    0.0000 H       1  UNL1        0.0232
     39 H           3.4860   -1.5000    0.0000 H       1  UNL1        0.0232
     40 H           3.4220   -1.4631    0.0000 H       1  UNL1        0.0306
     41 H           3.1951   -2.3100    0.0000 H       1  UNL1        0.0306
     42 H           4.0420   -2.5369    0.0000 H       1  UNL1        0.0306
@<TRIPOS>BOND
     1     1    13    2
     2     2     3    1
     3     2     6    1
     4     2     7    1
     5     2    11    1
     6     3     4    1
     7     3     8    1
     8     3    17    1
     9     4     5    1
    10     4    13    1
    11     4    18    1
    12     5     9    1
    13     5    12    1
    14     5    19    1
    15     6     9    1
    16     6    20    1
    17     6    21    1
    18     7    10    1
    19     7    22    1
    20     7    23    1
    21     8    10    1
    22     8    24    1
    23     8    25    1
    24     9    26    1
    25     9    27    1
    26    10    28    1
    27    10    29    1
    28    11    30    1
    29    11    31    1
    30    11    32    1
    31    12    14    1
    32    12    15    1
    33    12    33    1
    34    13    16    1
    35    14    34    1
    36    14    35    1
    37    14    38    1
    38    15    36    1
    39    15    37    1
    40    15    39    1
    41    16    40    1
    42    16    41    1
    43    16    42    1
