@<TRIPOS>MOLECULE
IMPHY005679
 16 16 0 0 0
SMALL
GASTEIGER

@<TRIPOS>ATOM
      1 O           2.0000    1.4400    0.0000 O.2     1  UNL1       -0.2704
      2 N           3.7320    1.4400    0.0000 N.am    1  UNL1       -0.3253
      3 C           2.8660   -0.0600    0.0000 C.ar    1  UNL1        0.0365
      4 C           2.0000   -0.5600    0.0000 C.ar    1  UNL1       -0.0496
      5 C           3.7320   -0.5600    0.0000 C.ar    1  UNL1       -0.0496
      6 C           2.0000   -1.5600    0.0000 C.ar    1  UNL1       -0.0610
      7 C           3.7320   -1.5600    0.0000 C.ar    1  UNL1       -0.0610
      8 C           2.8660   -2.0600    0.0000 C.ar    1  UNL1       -0.0617
      9 C           2.8660    0.9400    0.0000 C.2     1  UNL1        0.2415
     10 H           1.4631   -0.2500    0.0000 H       1  UNL1        0.0625
     11 H           4.2690   -0.2500    0.0000 H       1  UNL1        0.0625
     12 H           1.4631   -1.8700    0.0000 H       1  UNL1        0.0618
     13 H           4.2690   -1.8700    0.0000 H       1  UNL1        0.0618
     14 H           2.8660   -2.6800    0.0000 H       1  UNL1        0.0618
     15 H           3.7320    2.0600    0.0000 H       1  UNL1        0.1453
     16 H           4.2690    1.1300    0.0000 H       1  UNL1        0.1453
@<TRIPOS>BOND
     1     1     9    2
     2     2     9   am
     3     2    15    1
     4     2    16    1
     5     3     4   ar
     6     3     5   ar
     7     3     9    1
     8     4     6   ar
     9     4    10    1
    10     5     7   ar
    11     5    11    1
    12     6     8   ar
    13     6    12    1
    14     7     8   ar
    15     7    13    1
    16     8    14    1
