@<TRIPOS>MOLECULE
IMPHY008524
 51 53 0 0 0
SMALL
GASTEIGER

@<TRIPOS>ATOM
      1 O           7.0981   -1.2439    0.0000 O.3     1  UNL1       -0.4522
      2 O           3.0000    2.1222    0.0000 O.2     1  UNL1       -0.4992
      3 O           8.8301   -0.2439    0.0000 O.3     1  UNL1       -0.4885
      4 O           8.8301    1.7561    0.0000 O.3     1  UNL1       -0.4913
      5 O           4.3660    0.0241    0.0000 O.2     1  UNL1       -0.2926
      6 C           5.3660    1.7561    0.0000 C.3     1  UNL1       -0.0206
      7 C           6.2320    1.2561    0.0000 C.ar    1  UNL1       -0.0398
      8 C           4.5000    1.2561    0.0000 C.3     1  UNL1        0.0090
      9 C           3.2588   -2.3079    0.0000 C.3     1  UNL1       -0.0207
     10 C           3.0000   -1.3419    0.0000 C.3     1  UNL1        0.0140
     11 C           6.2320    0.2561    0.0000 C.ar    1  UNL1       -0.0122
     12 C           3.5000    1.2561    0.0000 C.2     1  UNL1        0.1009
     13 C           7.0981   -0.2439    0.0000 C.ar    1  UNL1        0.1738
     14 C           4.2247   -2.0490    0.0000 C.ar    1  UNL1       -0.0467
     15 C           7.0981    1.7561    0.0000 C.ar    1  UNL1       -0.0129
     16 C           7.9641    0.2561    0.0000 C.ar    1  UNL1        0.2041
     17 C           7.9641    1.2561    0.0000 C.ar    1  UNL1        0.1654
     18 C           3.5000   -0.4759    0.0000 C.2     1  UNL1        0.1595
     19 C           3.0000    0.3901    0.0000 C.2     1  UNL1        0.0183
     20 C           6.1566   -1.5314    0.0000 C.ar    1  UNL1        0.1286
     21 C           4.4778   -1.0746    0.0000 C.ar    1  UNL1       -0.0551
     22 C           4.9318   -2.7562    0.0000 C.ar    1  UNL1       -0.0551
     23 C           5.4502   -0.8141    0.0000 C.ar    1  UNL1       -0.0191
     24 C           5.8978   -2.4973    0.0000 C.ar    1  UNL1       -0.0191
     25 C           2.0000    2.1222    0.0000 C.3     1  UNL1        0.0783
     26 C           9.6962    0.2561    0.0000 C.3     1  UNL1        0.0791
     27 C           8.8301    2.7562    0.0000 C.3     1  UNL1        0.0790
     28 H           5.7646    2.2311    0.0000 H       1  UNL1        0.0317
     29 H           4.9675    2.2311    0.0000 H       1  UNL1        0.0317
     30 H           4.2880    0.6735    0.0000 H       1  UNL1        0.0346
     31 H           4.3395    1.8550    0.0000 H       1  UNL1        0.0346
     32 H           2.6599   -2.4683    0.0000 H       1  UNL1        0.0317
     33 H           3.4193   -2.9067    0.0000 H       1  UNL1        0.0317
     34 H           2.5616   -0.9035    0.0000 H       1  UNL1        0.0348
     35 H           2.4631   -1.6519    0.0000 H       1  UNL1        0.0348
     36 H           5.6951   -0.0539    0.0000 H       1  UNL1        0.0658
     37 H           7.0981    2.3761    0.0000 H       1  UNL1        0.0658
     38 H           2.3800    0.3901    0.0000 H       1  UNL1        0.0686
     39 H           4.0377   -0.6379    0.0000 H       1  UNL1        0.0621
     40 H           4.7714   -3.3550    0.0000 H       1  UNL1        0.0621
     41 H           5.6130   -0.2158    0.0000 H       1  UNL1        0.0654
     42 H           6.3362   -2.9357    0.0000 H       1  UNL1        0.0654
     43 H           2.0000    2.7422    0.0000 H       1  UNL1        0.0660
     44 H           1.3800    2.1222    0.0000 H       1  UNL1        0.0660
     45 H           2.0000    1.5022    0.0000 H       1  UNL1        0.0660
     46 H          10.0062   -0.2808    0.0000 H       1  UNL1        0.0660
     47 H          10.2331    0.5661    0.0000 H       1  UNL1        0.0660
     48 H           9.3862    0.7931    0.0000 H       1  UNL1        0.0660
     49 H           9.4501    2.7562    0.0000 H       1  UNL1        0.0660
     50 H           8.8301    3.3761    0.0000 H       1  UNL1        0.0660
     51 H           8.2101    2.7562    0.0000 H       1  UNL1        0.0660
@<TRIPOS>BOND
     1     1    13    1
     2     1    20    1
     3     2    12    1
     4     2    25    1
     5     3    16    1
     6     3    26    1
     7     4    17    1
     8     4    27    1
     9     5    18    2
    10     6     7    1
    11     6     8    1
    12     6    28    1
    13     6    29    1
    14     7    11   ar
    15     7    15   ar
    16     8    12    1
    17     8    30    1
    18     8    31    1
    19     9    10    1
    20     9    14    1
    21     9    32    1
    22     9    33    1
    23    10    18    1
    24    10    34    1
    25    10    35    1
    26    11    13   ar
    27    11    36    1
    28    12    19    2
    29    13    16   ar
    30    14    21   ar
    31    14    22   ar
    32    15    17   ar
    33    15    37    1
    34    16    17   ar
    35    18    19    1
    36    19    38    1
    37    20    23   ar
    38    20    24   ar
    39    21    23   ar
    40    21    39    1
    41    22    24   ar
    42    22    40    1
    43    23    41    1
    44    24    42    1
    45    25    43    1
    46    25    44    1
    47    25    45    1
    48    26    46    1
    49    26    47    1
    50    26    48    1
    51    27    49    1
    52    27    50    1
    53    27    51    1
