@<TRIPOS>MOLECULE
IMPHY002809
 54 57 0 0 0
SMALL
GASTEIGER

@<TRIPOS>ATOM
      1 O           4.8870    3.3826    0.0000 O.3     1  UNL1       -0.3912
      2 O           2.6198   -2.5911    0.0000 O.3     1  UNL1       -0.3907
      3 O           2.7606    0.9138    0.0000 O.3     1  UNL1       -0.4802
      4 O           7.3668   -1.1073    0.0000 O.3     1  UNL1       -0.4804
      5 O           3.7892    1.8843    0.0000 O.2     1  UNL1       -0.2504
      6 O           6.1677   -2.3572    0.0000 O.2     1  UNL1       -0.2507
      7 O           5.0164   -3.2749    0.0000 O.3     1  UNL1       -0.4802
      8 O           3.2846   -3.2446    0.0000 O.2     1  UNL1       -0.2503
      9 C           5.8209    0.2910    0.0000 C.3     1  UNL1       -0.0078
     10 C           4.9199    0.7248    0.0000 C.3     1  UNL1       -0.0159
     11 C           4.2348    0.0045    0.0000 C.3     1  UNL1        0.0757
     12 C           4.7066   -0.8704    0.0000 C.3     1  UNL1        0.0063
     13 C           5.6849   -0.6938    0.0000 C.3     1  UNL1        0.0674
     14 C           5.7140    1.4677    0.0000 C.3     1  UNL1       -0.0371
     15 C           6.3209    2.4816    0.0000 C.3     1  UNL1        0.0064
     16 C           6.7218    0.7248    0.0000 C.3     1  UNL1       -0.0249
     17 C           4.1767   -1.7600    0.0000 C.3     1  UNL1        0.0951
     18 C           4.6974    1.6998    0.0000 C.3     1  UNL1       -0.0219
     19 C           3.2003    0.0506    0.0000 C.3     1  UNL1       -0.0343
     20 C           5.3209    2.4816    0.0000 C.3     1  UNL1        0.0620
     21 C           6.9444    1.6998    0.0000 C.2     1  UNL1       -0.0705
     22 C           3.1415   -1.7379    0.0000 C.3     1  UNL1        0.0710
     23 C           2.6500   -0.8265    0.0000 C.3     1  UNL1       -0.0248
     24 C           3.7602    0.8847    0.0000 C.2     1  UNL1        0.3115
     25 C           6.4065   -1.3861    0.0000 C.2     1  UNL1        0.3087
     26 C           5.0338   -2.2751    0.0000 C.3     1  UNL1       -0.0467
     27 C           4.1592   -2.7599    0.0000 C.2     1  UNL1        0.3135
     28 C           7.9193    1.9223    0.0000 C.2     1  UNL1       -0.0991
     29 H           4.3220    0.8890    0.0000 H       1  UNL1        0.0318
     30 H           5.0598   -1.3800    0.0000 H       1  UNL1        0.0331
     31 H           6.2705   -0.4903    0.0000 H       1  UNL1        0.0422
     32 H           5.3062    1.9347    0.0000 H       1  UNL1        0.0277
     33 H           5.1440    1.2239    0.0000 H       1  UNL1        0.0277
     34 H           6.5899    3.0402    0.0000 H       1  UNL1        0.0371
     35 H           6.8598    0.1204    0.0000 H       1  UNL1        0.0316
     36 H           7.3418    0.7248    0.0000 H       1  UNL1        0.0316
     37 H           4.3108    2.1845    0.0000 H       1  UNL1        0.0293
     38 H           4.1388    1.4308    0.0000 H       1  UNL1        0.0293
     39 H           3.3335    0.6561    0.0000 H       1  UNL1        0.0277
     40 H           2.6265    0.2854    0.0000 H       1  UNL1        0.0277
     41 H           4.7048    2.5510    0.0000 H       1  UNL1        0.0599
     42 H           3.4389   -2.2819    0.0000 H       1  UNL1        0.0604
     43 H           2.1890   -0.4120    0.0000 H       1  UNL1        0.0291
     44 H           2.1627   -1.2098    0.0000 H       1  UNL1        0.0291
     45 H           4.7145   -2.8065    0.0000 H       1  UNL1        0.0241
     46 H           5.5653   -2.5944    0.0000 H       1  UNL1        0.0241
     47 H           5.3532   -1.7437    0.0000 H       1  UNL1        0.0241
     48 H           8.3410    1.4678    0.0000 H       1  UNL1        0.0535
     49 H           8.1020    2.5148    0.0000 H       1  UNL1        0.0535
     50 H           5.2362    3.8948    0.0000 H       1  UNL1        0.2098
     51 H           2.0000   -2.5754    0.0000 H       1  UNL1        0.2098
     52 H           2.4663    1.4595    0.0000 H       1  UNL1        0.2951
     53 H           7.8142   -1.5366    0.0000 H       1  UNL1        0.2951
     54 H           5.0055   -3.8948    0.0000 H       1  UNL1        0.2951
@<TRIPOS>BOND
     1     1    20    1
     2     1    50    1
     3     2    22    1
     4     2    51    1
     5     3    24    1
     6     3    52    1
     7     4    25    1
     8     4    53    1
     9     5    24    2
    10     6    25    2
    11     7    27    1
    12     7    54    1
    13     8    27    2
    14     9    10    1
    15     9    13    1
    16     9    14    1
    17     9    16    1
    18    10    11    1
    19    10    18    1
    20    10    29    1
    21    11    12    1
    22    11    19    1
    23    11    24    1
    24    12    13    1
    25    12    17    1
    26    12    30    1
    27    13    25    1
    28    13    31    1
    29    14    15    1
    30    14    32    1
    31    14    33    1
    32    15    20    1
    33    15    21    1
    34    15    34    1
    35    16    21    1
    36    16    35    1
    37    16    36    1
    38    17    22    1
    39    17    26    1
    40    17    27    1
    41    18    20    1
    42    18    37    1
    43    18    38    1
    44    19    23    1
    45    19    39    1
    46    19    40    1
    47    20    41    1
    48    21    28    2
    49    22    23    1
    50    22    42    1
    51    23    43    1
    52    23    44    1
    53    26    45    1
    54    26    46    1
    55    26    47    1
    56    28    48    1
    57    28    49    1
