@<TRIPOS>MOLECULE
IMPHY009201
 29 31 0 0 0
SMALL
GASTEIGER

@<TRIPOS>ATOM
      1 O           5.5301   -2.1779    0.0000 O.2     1  UNL1       -0.4219
      2 O           3.7817    0.8567    0.0000 O.3     1  UNL1       -0.5059
      3 O           2.0000   -2.2021    0.0000 O.3     1  UNL1       -0.5065
      4 O           7.2622   -2.1779    0.0000 O.2     1  UNL1       -0.2452
      5 C           4.6641   -0.6779    0.0000 C.ar    1  UNL1        0.0669
      6 C           5.5301   -0.1779    0.0000 C.ar    1  UNL1        0.0031
      7 C           4.6641   -1.6779    0.0000 C.ar    1  UNL1        0.1466
      8 C           5.5301    0.8221    0.0000 C.ar    1  UNL1       -0.0169
      9 C           3.7702   -0.1433    0.0000 C.ar    1  UNL1        0.1315
     10 C           6.3961   -0.6779    0.0000 C.ar    1  UNL1        0.0314
     11 C           3.7702   -2.2126    0.0000 C.ar    1  UNL1        0.0231
     12 C           2.8641   -0.6571    0.0000 C.ar    1  UNL1        0.0221
     13 C           2.8641   -1.6987    0.0000 C.ar    1  UNL1        0.1239
     14 C           6.3961    1.3221    0.0000 C.ar    1  UNL1       -0.0540
     15 C           4.6641    1.3221    0.0000 C.ar    1  UNL1       -0.0540
     16 C           6.3961   -1.6779    0.0000 C.ar    1  UNL1        0.3378
     17 C           6.3961    2.3221    0.0000 C.ar    1  UNL1       -0.0612
     18 C           4.6641    2.3221    0.0000 C.ar    1  UNL1       -0.0612
     19 C           5.5301    2.8221    0.0000 C.ar    1  UNL1       -0.0617
     20 H           6.9331   -0.3679    0.0000 H       1  UNL1        0.0695
     21 H           3.7773   -2.8326    0.0000 H       1  UNL1        0.0691
     22 H           2.3284   -0.3450    0.0000 H       1  UNL1        0.0691
     23 H           6.9331    1.0121    0.0000 H       1  UNL1        0.0624
     24 H           4.1272    1.0121    0.0000 H       1  UNL1        0.0624
     25 H           6.9331    2.6321    0.0000 H       1  UNL1        0.0618
     26 H           4.1272    2.6321    0.0000 H       1  UNL1        0.0618
     27 H           5.5301    3.4421    0.0000 H       1  UNL1        0.0618
     28 H           3.2484    1.1729    0.0000 H       1  UNL1        0.2922
     29 H           2.0024   -2.8221    0.0000 H       1  UNL1        0.2921
@<TRIPOS>BOND
     1     1     7   ar
     2     1    16   ar
     3     2     9    1
     4     2    28    1
     5     3    13    1
     6     3    29    1
     7     4    16    2
     8     5     6   ar
     9     5     7   ar
    10     5     9   ar
    11     6     8    1
    12     6    10   ar
    13     7    11   ar
    14     8    14   ar
    15     8    15   ar
    16     9    12   ar
    17    10    16   ar
    18    10    20    1
    19    11    13   ar
    20    11    21    1
    21    12    13   ar
    22    12    22    1
    23    14    17   ar
    24    14    23    1
    25    15    18   ar
    26    15    24    1
    27    17    19   ar
    28    17    25    1
    29    18    19   ar
    30    18    26    1
    31    19    27    1
