@<TRIPOS>MOLECULE
IMPHY016593
 35 35 0 0 0
SMALL
GASTEIGER

@<TRIPOS>ATOM
      1 O           2.5369    0.0670    0.0000 O.3     1  UNL1       -0.3950
      2 C           6.8671    0.5670    0.0000 C.3     1  UNL1       -0.0284
      3 C           6.0010    0.0670    0.0000 C.3     1  UNL1       -0.0149
      4 C           7.7331    0.0670    0.0000 C.3     1  UNL1       -0.0470
      5 C           7.7331   -0.9330    0.0000 C.3     1  UNL1       -0.0489
      6 C           6.0010   -0.9330    0.0000 C.2     1  UNL1       -0.0730
      7 C           5.1350    0.5670    0.0000 C.3     1  UNL1       -0.0440
      8 C           6.8671   -1.4330    0.0000 C.3     1  UNL1       -0.0317
      9 C           7.3671    1.4330    0.0000 C.3     1  UNL1       -0.0593
     10 C           6.3671    1.4330    0.0000 C.3     1  UNL1       -0.0593
     11 C           4.2690    0.0670    0.0000 C.3     1  UNL1       -0.0292
     12 C           5.1350   -1.4330    0.0000 C.2     1  UNL1       -0.0992
     13 C           3.4030    0.5670    0.0000 C.3     1  UNL1        0.0442
     14 H           5.4641   -0.2430    0.0000 H       1  UNL1        0.0351
     15 H           8.3437   -0.0407    0.0000 H       1  UNL1        0.0271
     16 H           7.9451    0.6496    0.0000 H       1  UNL1        0.0271
     17 H           7.9451   -1.5156    0.0000 H       1  UNL1        0.0268
     18 H           8.3437   -0.8254    0.0000 H       1  UNL1        0.0268
     19 H           5.5335    1.0419    0.0000 H       1  UNL1        0.0272
     20 H           4.7365    1.0419    0.0000 H       1  UNL1        0.0272
     21 H           6.4685   -1.9080    0.0000 H       1  UNL1        0.0310
     22 H           7.2656   -1.9080    0.0000 H       1  UNL1        0.0310
     23 H           7.9040    1.1230    0.0000 H       1  UNL1        0.0235
     24 H           7.6771    1.9700    0.0000 H       1  UNL1        0.0235
     25 H           6.8301    1.7430    0.0000 H       1  UNL1        0.0235
     26 H           6.9040    1.7430    0.0000 H       1  UNL1        0.0235
     27 H           6.0571    1.9700    0.0000 H       1  UNL1        0.0235
     28 H           5.8301    1.1230    0.0000 H       1  UNL1        0.0235
     29 H           3.8705   -0.4080    0.0000 H       1  UNL1        0.0287
     30 H           4.6675   -0.4080    0.0000 H       1  UNL1        0.0287
     31 H           4.5981   -1.1230    0.0000 H       1  UNL1        0.0534
     32 H           5.1350   -2.0530    0.0000 H       1  UNL1        0.0534
     33 H           3.8015    1.0419    0.0000 H       1  UNL1        0.0557
     34 H           3.0044    1.0419    0.0000 H       1  UNL1        0.0557
     35 H           2.0000    0.3770    0.0000 H       1  UNL1        0.2094
@<TRIPOS>BOND
     1     1    13    1
     2     1    35    1
     3     2     3    1
     4     2     4    1
     5     2     9    1
     6     2    10    1
     7     3     6    1
     8     3     7    1
     9     3    14    1
    10     4     5    1
    11     4    15    1
    12     4    16    1
    13     5     8    1
    14     5    17    1
    15     5    18    1
    16     6     8    1
    17     6    12    2
    18     7    11    1
    19     7    19    1
    20     7    20    1
    21     8    21    1
    22     8    22    1
    23     9    23    1
    24     9    24    1
    25     9    25    1
    26    10    26    1
    27    10    27    1
    28    10    28    1
    29    11    13    1
    30    11    29    1
    31    11    30    1
    32    12    31    1
    33    12    32    1
    34    13    33    1
    35    13    34    1
