@<TRIPOS>MOLECULE
IMPHY016524
 41 42 0 0 0
SMALL
GASTEIGER

@<TRIPOS>ATOM
      1 O           7.1569    2.0262    0.0000 O.3     1  UNL1       -0.3888
      2 O           3.5000   -2.2474    0.0000 O.2     1  UNL1       -0.2960
      3 C           4.0000    0.3506    0.0000 C.3     1  UNL1        0.0014
      4 C           5.5388    0.8506    0.0000 C.3     1  UNL1       -0.0118
      5 C           4.5878    1.1596    0.0000 C.3     1  UNL1       -0.0376
      6 C           4.5878   -0.4584    0.0000 C.3     1  UNL1       -0.0427
      7 C           3.5000    1.2167    0.0000 C.3     1  UNL1       -0.0338
      8 C           5.5388   -0.1494    0.0000 C.3     1  UNL1       -0.0468
      9 C           6.3479    1.4384    0.0000 C.3     1  UNL1        0.0634
     10 C           3.5000   -0.5154    0.0000 C.2     1  UNL1       -0.0057
     11 C           2.5000    1.2167    0.0000 C.3     1  UNL1       -0.0462
     12 C           2.0000    0.3506    0.0000 C.3     1  UNL1       -0.0338
     13 C           4.0000    2.0827    0.0000 C.3     1  UNL1       -0.0616
     14 C           2.5000   -0.5154    0.0000 C.2     1  UNL1       -0.0772
     15 C           6.9356    0.6294    0.0000 C.3     1  UNL1       -0.0361
     16 C           5.7601    2.2474    0.0000 C.3     1  UNL1       -0.0361
     17 C           4.0000   -1.3814    0.0000 C.2     1  UNL1        0.1465
     18 H           6.0913    0.5692    0.0000 H       1  UNL1        0.0329
     19 H           4.8400    1.7260    0.0000 H       1  UNL1        0.0277
     20 H           4.0508    1.4696    0.0000 H       1  UNL1        0.0277
     21 H           4.0508   -0.7684    0.0000 H       1  UNL1        0.0274
     22 H           4.8400   -1.0248    0.0000 H       1  UNL1        0.0274
     23 H           4.1200    1.2167    0.0000 H       1  UNL1        0.0307
     24 H           5.6678   -0.7558    0.0000 H       1  UNL1        0.0269
     25 H           6.1554   -0.0846    0.0000 H       1  UNL1        0.0269
     26 H           2.6077    1.8272    0.0000 H       1  UNL1        0.0271
     27 H           1.9174    1.4287    0.0000 H       1  UNL1        0.0271
     28 H           1.5250    0.7492    0.0000 H       1  UNL1        0.0308
     29 H           1.5250   -0.0479    0.0000 H       1  UNL1        0.0308
     30 H           4.5369    1.7727    0.0000 H       1  UNL1        0.0233
     31 H           4.3100    2.6196    0.0000 H       1  UNL1        0.0233
     32 H           3.4631    2.3927    0.0000 H       1  UNL1        0.0233
     33 H           2.1900   -1.0523    0.0000 H       1  UNL1        0.0576
     34 H           6.4340    0.2650    0.0000 H       1  UNL1        0.0257
     35 H           7.3001    0.1278    0.0000 H       1  UNL1        0.0257
     36 H           7.4372    0.9938    0.0000 H       1  UNL1        0.0257
     37 H           6.2617    2.6119    0.0000 H       1  UNL1        0.0257
     38 H           5.3956    2.7490    0.0000 H       1  UNL1        0.0257
     39 H           5.2585    1.8830    0.0000 H       1  UNL1        0.0257
     40 H           4.6200   -1.3814    0.0000 H       1  UNL1        0.1078
     41 H           7.7233    1.7740    0.0000 H       1  UNL1        0.2101
@<TRIPOS>BOND
     1     1     9    1
     2     1    41    1
     3     2    17    2
     4     3     5    1
     5     3     6    1
     6     3     7    1
     7     3    10    1
     8     4     5    1
     9     4     8    1
    10     4     9    1
    11     4    18    1
    12     5    19    1
    13     5    20    1
    14     6     8    1
    15     6    21    1
    16     6    22    1
    17     7    11    1
    18     7    13    1
    19     7    23    1
    20     8    24    1
    21     8    25    1
    22     9    15    1
    23     9    16    1
    24    10    14    2
    25    10    17    1
    26    11    12    1
    27    11    26    1
    28    11    27    1
    29    12    14    1
    30    12    28    1
    31    12    29    1
    32    13    30    1
    33    13    31    1
    34    13    32    1
    35    14    33    1
    36    15    34    1
    37    15    35    1
    38    15    36    1
    39    16    37    1
    40    16    38    1
    41    16    39    1
    42    17    40    1
