@<TRIPOS>MOLECULE
IMPHY015076
 80 83 0 0 0
SMALL
GASTEIGER

@<TRIPOS>ATOM
      1 O           2.5357   -3.6598    0.0000 O.3     1  UNL1       -0.3918
      2 C           7.9288   -0.6074    0.0000 C.3     1  UNL1       -0.0225
      3 C           7.9288   -1.6074    0.0000 C.3     1  UNL1       -0.0140
      4 C           6.1968   -1.6074    0.0000 C.3     1  UNL1       -0.0139
      5 C           5.2868   -2.1143    0.0000 C.3     1  UNL1       -0.0223
      6 C           8.8750   -0.3027    0.0000 C.3     1  UNL1       -0.0325
      7 C           7.0628   -2.1074    0.0000 C.2     1  UNL1       -0.0662
      8 C           7.0628   -0.1074    0.0000 C.3     1  UNL1       -0.0463
      9 C           6.1968   -0.6074    0.0000 C.3     1  UNL1       -0.0455
     10 C           8.8750   -1.9122    0.0000 C.3     1  UNL1       -0.0457
     11 C           5.2787   -3.1559    0.0000 C.3     1  UNL1       -0.0293
     12 C           9.4586   -1.1074    0.0000 C.3     1  UNL1       -0.0489
     13 C           9.1857    0.6478    0.0000 C.3     1  UNL1       -0.0405
     14 C           4.3599   -1.5502    0.0000 C.3     1  UNL1       -0.0445
     15 C           7.9288    0.3926    0.0000 C.3     1  UNL1       -0.0588
     16 C           6.1808   -3.6767    0.0000 C.3     1  UNL1       -0.0311
     17 C           7.0789   -3.1489    0.0000 C.2     1  UNL1       -0.0839
     18 C           4.3433   -3.7056    0.0000 C.3     1  UNL1       -0.0232
     19 C           5.2945   -1.1143    0.0000 C.3     1  UNL1       -0.0588
     20 C           3.4120   -2.0781    0.0000 C.3     1  UNL1       -0.0263
     21 C           3.4037   -3.1631    0.0000 C.3     1  UNL1        0.0556
     22 C          10.1642    0.8540    0.0000 C.3     1  UNL1       -0.0499
     23 C           8.5179    1.3921    0.0000 C.3     1  UNL1       -0.0621
     24 C          10.4749    1.8046    0.0000 C.3     1  UNL1       -0.0497
     25 C          11.4534    2.0108    0.0000 C.3     1  UNL1       -0.0389
     26 C          11.7640    2.9613    0.0000 C.3     1  UNL1       -0.0439
     27 C          12.1212    1.2665    0.0000 C.3     1  UNL1       -0.0528
     28 C          12.7425    3.1675    0.0000 C.3     1  UNL1       -0.0624
     29 C          11.0962    3.7056    0.0000 C.3     1  UNL1       -0.0624
     30 C          13.0997    1.4727    0.0000 C.3     1  UNL1       -0.0650
     31 H           8.0045   -2.3675    0.0000 H       1  UNL1        0.0351
     32 H           6.1635   -2.3705    0.0000 H       1  UNL1        0.0351
     33 H           8.3392    0.2417    0.0000 H       1  UNL1        0.0309
     34 H           6.6809    0.5541    0.0000 H       1  UNL1        0.0271
     35 H           7.4447    0.5541    0.0000 H       1  UNL1        0.0271
     36 H           5.4329   -0.6074    0.0000 H       1  UNL1        0.0271
     37 H           5.8149    0.0541    0.0000 H       1  UNL1        0.0271
     38 H           9.4435   -2.4224    0.0000 H       1  UNL1        0.0271
     39 H           8.7174   -2.6596    0.0000 H       1  UNL1        0.0271
     40 H           4.6039   -2.7979    0.0000 H       1  UNL1        0.0310
     41 H          10.1201   -0.7254    0.0000 H       1  UNL1        0.0268
     42 H          10.1201   -1.4893    0.0000 H       1  UNL1        0.0268
     43 H           9.6958    0.0792    0.0000 H       1  UNL1        0.0301
     44 H           3.9908   -0.8815    0.0000 H       1  UNL1        0.0272
     45 H           4.7545   -0.8962    0.0000 H       1  UNL1        0.0272
     46 H           8.5903    0.7745    0.0000 H       1  UNL1        0.0235
     47 H           7.9288    1.1565    0.0000 H       1  UNL1        0.0235
     48 H           7.2673    0.7745    0.0000 H       1  UNL1        0.0235
     49 H           6.5652   -4.3368    0.0000 H       1  UNL1        0.0310
     50 H           5.8014   -4.3397    0.0000 H       1  UNL1        0.0310
     51 H           7.7448   -3.5231    0.0000 H       1  UNL1        0.0572
     52 H           4.7278   -4.3656    0.0000 H       1  UNL1        0.0293
     53 H           3.9639   -4.3686    0.0000 H       1  UNL1        0.0293
     54 H           5.9589   -0.7375    0.0000 H       1  UNL1        0.0235
     55 H           5.3004   -0.3505    0.0000 H       1  UNL1        0.0235
     56 H           4.6359   -0.7273    0.0000 H       1  UNL1        0.0235
     57 H           2.6482   -2.0692    0.0000 H       1  UNL1        0.0290
     58 H           3.0378   -1.4122    0.0000 H       1  UNL1        0.0290
     59 H           3.4562   -3.9251    0.0000 H       1  UNL1        0.0593
     60 H          10.8902    0.6166    0.0000 H       1  UNL1        0.0268
     61 H          10.3216    0.1066    0.0000 H       1  UNL1        0.0268
     62 H           8.7552    2.1181    0.0000 H       1  UNL1        0.0233
     63 H           8.0078    1.9607    0.0000 H       1  UNL1        0.0233
     64 H           7.7705    1.2346    0.0000 H       1  UNL1        0.0233
     65 H           9.7489    2.0420    0.0000 H       1  UNL1        0.0268
     66 H          10.3175    2.5520    0.0000 H       1  UNL1        0.0268
     67 H           1.8727   -4.0392    0.0000 H       1  UNL1        0.2098
     68 H          12.2008    2.1683    0.0000 H       1  UNL1        0.0303
     69 H          11.0166    2.8038    0.0000 H       1  UNL1        0.0298
     70 H          12.2787    0.5191    0.0000 H       1  UNL1        0.0265
     71 H          11.5526    0.7564    0.0000 H       1  UNL1        0.0265
     72 H          13.2526    2.5990    0.0000 H       1  UNL1        0.0232
     73 H          13.4899    3.3250    0.0000 H       1  UNL1        0.0232
     74 H          12.9798    3.8936    0.0000 H       1  UNL1        0.0232
     75 H          11.3335    4.4316    0.0000 H       1  UNL1        0.0232
     76 H          10.5861    4.2742    0.0000 H       1  UNL1        0.0232
     77 H          10.3488    3.5481    0.0000 H       1  UNL1        0.0232
     78 H          13.6098    0.9042    0.0000 H       1  UNL1        0.0230
     79 H          13.8471    1.6302    0.0000 H       1  UNL1        0.0230
     80 H          13.3370    2.1988    0.0000 H       1  UNL1        0.0230
@<TRIPOS>BOND
     1     1    21    1
     2     1    67    1
     3     2     3    1
     4     2     6    1
     5     2     8    1
     6     2    15    1
     7     3     7    1
     8     3    10    1
     9     3    31    1
    10     4     5    1
    11     4     7    1
    12     4     9    1
    13     4    32    1
    14     5    11    1
    15     5    14    1
    16     5    19    1
    17     6    12    1
    18     6    13    1
    19     6    33    1
    20     7    17    2
    21     8     9    1
    22     8    34    1
    23     8    35    1
    24     9    36    1
    25     9    37    1
    26    10    12    1
    27    10    38    1
    28    10    39    1
    29    11    16    1
    30    11    18    1
    31    11    40    1
    32    12    41    1
    33    12    42    1
    34    13    22    1
    35    13    23    1
    36    13    43    1
    37    14    20    1
    38    14    44    1
    39    14    45    1
    40    15    46    1
    41    15    47    1
    42    15    48    1
    43    16    17    1
    44    16    49    1
    45    16    50    1
    46    17    51    1
    47    18    21    1
    48    18    52    1
    49    18    53    1
    50    19    54    1
    51    19    55    1
    52    19    56    1
    53    20    21    1
    54    20    57    1
    55    20    58    1
    56    21    59    1
    57    22    24    1
    58    22    60    1
    59    22    61    1
    60    23    62    1
    61    23    63    1
    62    23    64    1
    63    24    25    1
    64    24    65    1
    65    24    66    1
    66    25    26    1
    67    25    27    1
    68    25    68    1
    69    26    28    1
    70    26    29    1
    71    26    69    1
    72    27    30    1
    73    27    70    1
    74    27    71    1
    75    28    72    1
    76    28    73    1
    77    28    74    1
    78    29    75    1
    79    29    76    1
    80    29    77    1
    81    30    78    1
    82    30    79    1
    83    30    80    1
