@<TRIPOS>MOLECULE
IMPHY007780
 45 48 0 0 0
SMALL
GASTEIGER

@<TRIPOS>ATOM
      1 O           5.1804    1.5072    0.0000 O.3     1  UNL1       -0.5029
      2 O           6.9464    2.5450    0.0000 O.3     1  UNL1       -0.4914
      3 O           2.5381   -2.0484    0.0000 O.3     1  UNL1       -0.4914
      4 O           2.5381   -0.0001    0.0000 O.3     1  UNL1       -0.5033
      5 N           7.7925   -2.0212    0.0000 N.3     1  UNL1       -0.2978
      6 C           6.9343   -1.5242    0.0000 C.3     1  UNL1        0.0403
      7 C           6.9343   -0.5242    0.0000 C.ar    1  UNL1       -0.0153
      8 C           6.0682   -2.0242    0.0000 C.3     1  UNL1       -0.0072
      9 C           7.8443   -0.0174    0.0000 C.ar    1  UNL1       -0.0372
     10 C           8.6580   -1.5370    0.0000 C.3     1  UNL1        0.0032
     11 C           6.0682   -0.0242    0.0000 C.ar    1  UNL1        0.0325
     12 C           8.6836   -0.5456    0.0000 C.3     1  UNL1       -0.0144
     13 C           5.2022   -1.5242    0.0000 C.ar    1  UNL1       -0.0341
     14 C           5.2022   -0.5242    0.0000 C.ar    1  UNL1       -0.0070
     15 C           7.8523    1.0242    0.0000 C.ar    1  UNL1       -0.0127
     16 C           6.0522    1.0173    0.0000 C.ar    1  UNL1        0.1666
     17 C           7.7851   -3.0211    0.0000 C.3     1  UNL1       -0.0122
     18 C           6.9502    1.5450    0.0000 C.ar    1  UNL1        0.1622
     19 C           4.3083   -2.0589    0.0000 C.ar    1  UNL1       -0.0125
     20 C           4.3083    0.0104    0.0000 C.ar    1  UNL1       -0.0084
     21 C           3.4022   -1.5450    0.0000 C.ar    1  UNL1        0.1616
     22 C           3.4022   -0.5034    0.0000 C.ar    1  UNL1        0.1590
     23 C           7.8105    3.0484    0.0000 C.3     1  UNL1        0.0790
     24 C           2.5420   -3.0484    0.0000 C.3     1  UNL1        0.0790
     25 H           6.9337   -2.3742    0.0000 H       1  UNL1        0.0516
     26 H           5.6697   -2.4992    0.0000 H       1  UNL1        0.0332
     27 H           6.4668   -2.4992    0.0000 H       1  UNL1        0.0332
     28 H           8.8597   -2.1232    0.0000 H       1  UNL1        0.0430
     29 H           9.2708   -1.4426    0.0000 H       1  UNL1        0.0430
     30 H           9.2907   -0.6715    0.0000 H       1  UNL1        0.0326
     31 H           8.9154    0.0295    0.0000 H       1  UNL1        0.0326
     32 H           8.3904    1.3322    0.0000 H       1  UNL1        0.0658
     33 H           7.1651   -3.0165    0.0000 H       1  UNL1        0.0391
     34 H           7.7805   -3.6411    0.0000 H       1  UNL1        0.0391
     35 H           8.4051   -3.0257    0.0000 H       1  UNL1        0.0391
     36 H           4.3154   -2.6788    0.0000 H       1  UNL1        0.0658
     37 H           4.3154    0.6304    0.0000 H       1  UNL1        0.0661
     38 H           5.1733    2.1272    0.0000 H       1  UNL1        0.2923
     39 H           2.0000   -0.3080    0.0000 H       1  UNL1        0.2923
     40 H           8.1225    2.5126    0.0000 H       1  UNL1        0.0660
     41 H           8.3462    3.3604    0.0000 H       1  UNL1        0.0660
     42 H           7.4984    3.5841    0.0000 H       1  UNL1        0.0660
     43 H           1.9220   -3.0508    0.0000 H       1  UNL1        0.0660
     44 H           2.5444   -3.6684    0.0000 H       1  UNL1        0.0660
     45 H           3.1620   -3.0460    0.0000 H       1  UNL1        0.0660
@<TRIPOS>BOND
     1     1    16    1
     2     1    38    1
     3     2    18    1
     4     2    23    1
     5     3    21    1
     6     3    24    1
     7     4    22    1
     8     4    39    1
     9     5     6    1
    10     5    10    1
    11     5    17    1
    12     6     7    1
    13     6     8    1
    14     6    25    1
    15     7     9   ar
    16     7    11   ar
    17     8    13    1
    18     8    26    1
    19     8    27    1
    20     9    12    1
    21     9    15   ar
    22    10    12    1
    23    10    28    1
    24    10    29    1
    25    11    14    1
    26    11    16   ar
    27    12    30    1
    28    12    31    1
    29    13    14   ar
    30    13    19   ar
    31    14    20   ar
    32    15    18   ar
    33    15    32    1
    34    16    18   ar
    35    17    33    1
    36    17    34    1
    37    17    35    1
    38    19    21   ar
    39    19    36    1
    40    20    22   ar
    41    20    37    1
    42    21    22   ar
    43    23    40    1
    44    23    41    1
    45    23    42    1
    46    24    43    1
    47    24    44    1
    48    24    45    1
