@<TRIPOS>MOLECULE
IMPHY016115
 25 25 0 0 0
SMALL
GASTEIGER

@<TRIPOS>ATOM
      1 O           2.0000   -1.0094    0.0000 O.2     1  UNL1       -0.2924
      2 C           4.2601   -2.2694    0.0000 C.3     1  UNL1       -0.0243
      3 C           4.5691   -1.3184    0.0000 C.2     1  UNL1       -0.0654
      4 C           3.2601   -2.2694    0.0000 C.3     1  UNL1        0.0138
      5 C           3.7601   -0.7306    0.0000 C.2     1  UNL1       -0.0023
      6 C           2.9511   -1.3184    0.0000 C.2     1  UNL1        0.1598
      7 C           3.7601    0.2694    0.0000 C.3     1  UNL1       -0.0062
      8 C           5.5202   -1.0094    0.0000 C.3     1  UNL1       -0.0431
      9 C           4.6261    0.7694    0.0000 C.2     1  UNL1       -0.0838
     10 C           4.6261    1.7694    0.0000 C.2     1  UNL1       -0.0907
     11 C           3.7601    2.2694    0.0000 C.3     1  UNL1       -0.0468
     12 H           4.1953   -2.8860    0.0000 H       1  UNL1        0.0314
     13 H           4.8665   -2.3983    0.0000 H       1  UNL1        0.0314
     14 H           2.6536   -2.3983    0.0000 H       1  UNL1        0.0348
     15 H           3.3249   -2.8860    0.0000 H       1  UNL1        0.0348
     16 H           3.5480    0.8520    0.0000 H       1  UNL1        0.0357
     17 H           3.1495    0.1618    0.0000 H       1  UNL1        0.0357
     18 H           5.7117   -1.5990    0.0000 H       1  UNL1        0.0275
     19 H           6.1098   -0.8178    0.0000 H       1  UNL1        0.0275
     20 H           5.3286   -0.4197    0.0000 H       1  UNL1        0.0275
     21 H           5.1630    0.4594    0.0000 H       1  UNL1        0.0572
     22 H           5.1630    2.0794    0.0000 H       1  UNL1        0.0566
     23 H           4.0701    2.8064    0.0000 H       1  UNL1        0.0272
     24 H           3.2231    2.5794    0.0000 H       1  UNL1        0.0272
     25 H           3.4501    1.7325    0.0000 H       1  UNL1        0.0272
@<TRIPOS>BOND
     1     1     6    2
     2     2     3    1
     3     2     4    1
     4     2    12    1
     5     2    13    1
     6     3     5    2
     7     3     8    1
     8     4     6    1
     9     4    14    1
    10     4    15    1
    11     5     6    1
    12     5     7    1
    13     7     9    1
    14     7    16    1
    15     7    17    1
    16     8    18    1
    17     8    19    1
    18     8    20    1
    19     9    10    2
    20     9    21    1
    21    10    11    1
    22    10    22    1
    23    11    23    1
    24    11    24    1
    25    11    25    1
