@<TRIPOS>MOLECULE
IMPHY002778
 79 84 0 0 0
SMALL
GASTEIGER

@<TRIPOS>ATOM
      1 O           6.1561    1.6494    0.0000 O.3     1  UNL1       -0.2220
      2 O           6.1561    2.6494    0.0000 O.3     1  UNL1       -0.2228
      3 O           4.3863   -4.7499    0.0000 O.3     1  UNL1       -0.3887
      4 O           2.5357   -3.6815    0.0000 O.3     1  UNL1       -0.3892
      5 C           5.3061    0.1079    0.0000 C.3     1  UNL1        0.0075
      6 C           4.4081   -0.4198    0.0000 C.3     1  UNL1       -0.0268
      7 C           5.2901    1.1494    0.0000 C.3     1  UNL1        0.1339
      8 C           4.4241    1.6494    0.0000 C.3     1  UNL1        0.0100
      9 C           4.3997   -1.5048    0.0000 C.3     1  UNL1       -0.0228
     10 C           4.4241    2.6494    0.0000 C.3     1  UNL1        0.0037
     11 C           5.3394   -2.0473    0.0000 C.3     1  UNL1       -0.0277
     12 C           3.5060    0.1010    0.0000 C.3     1  UNL1       -0.0485
     13 C           3.5141    1.1426    0.0000 C.3     1  UNL1       -0.0439
     14 C           6.2581   -0.4127    0.0000 C.3     1  UNL1       -0.0440
     15 C           5.2901    3.1494    0.0000 C.3     1  UNL1        0.1261
     16 C           6.2748   -1.4976    0.0000 C.3     1  UNL1       -0.0485
     17 C           5.3568   -3.1773    0.0000 C.3     1  UNL1       -0.0032
     18 C           3.4124   -2.0547    0.0000 C.3     1  UNL1       -0.0184
     19 C           4.8901    1.7494    0.0000 C.2     1  UNL1       -0.0496
     20 C           6.1683    0.6146    0.0000 C.3     1  UNL1       -0.0562
     21 C           3.5141    3.1563    0.0000 C.3     1  UNL1       -0.0414
     22 C           3.4392    1.8231    0.0000 C.3     1  UNL1       -0.0562
     23 C           3.5337   -1.0048    0.0000 C.3     1  UNL1       -0.0589
     24 C           4.8901    2.5494    0.0000 C.2     1  UNL1       -0.0504
     25 C           4.3824   -3.7499    0.0000 C.3     1  UNL1        0.0864
     26 C           5.3061    4.1910    0.0000 C.3     1  UNL1       -0.0163
     27 C           3.4037   -3.1848    0.0000 C.3     1  UNL1        0.0821
     28 C           3.5060    4.1979    0.0000 C.3     1  UNL1       -0.0344
     29 C           4.4081    4.7187    0.0000 C.3     1  UNL1       -0.0448
     30 C           5.8668   -4.0375    0.0000 C.3     1  UNL1       -0.0571
     31 C           6.3567   -3.1658    0.0000 C.3     1  UNL1       -0.0571
     32 C           3.0027    5.0620    0.0000 C.3     1  UNL1       -0.0598
     33 C           2.5060    4.1940    0.0000 C.3     1  UNL1       -0.0598
     34 H           3.6704   -0.8420    0.0000 H       1  UNL1        0.0312
     35 H           3.5870    2.5019    0.0000 H       1  UNL1        0.0339
     36 H           6.0804   -2.4637    0.0000 H       1  UNL1        0.0312
     37 H           2.8960    0.2118    0.0000 H       1  UNL1        0.0268
     38 H           3.2925   -0.4811    0.0000 H       1  UNL1        0.0268
     39 H           3.3095    1.7279    0.0000 H       1  UNL1        0.0272
     40 H           2.9024    1.0412    0.0000 H       1  UNL1        0.0272
     41 H           6.8705   -0.5094    0.0000 H       1  UNL1        0.0272
     42 H           6.4581    0.1742    0.0000 H       1  UNL1        0.0272
     43 H           6.4928   -2.0780    0.0000 H       1  UNL1        0.0268
     44 H           6.8840   -1.3821    0.0000 H       1  UNL1        0.0268
     45 H           3.2078   -1.4694    0.0000 H       1  UNL1        0.0296
     46 H           2.8007   -2.1561    0.0000 H       1  UNL1        0.0296
     47 H           4.2967    1.5698    0.0000 H       1  UNL1        0.0600
     48 H           6.4824    0.0801    0.0000 H       1  UNL1        0.0236
     49 H           6.7028    0.9287    0.0000 H       1  UNL1        0.0236
     50 H           5.8542    1.1491    0.0000 H       1  UNL1        0.0236
     51 H           2.9024    3.2577    0.0000 H       1  UNL1        0.0274
     52 H           3.3095    2.5710    0.0000 H       1  UNL1        0.0274
     53 H           3.5469    2.4337    0.0000 H       1  UNL1        0.0236
     54 H           2.8287    1.9308    0.0000 H       1  UNL1        0.0236
     55 H           3.3316    1.2125    0.0000 H       1  UNL1        0.0236
     56 H           3.8437   -0.4678    0.0000 H       1  UNL1        0.0235
     57 H           2.9968   -0.6948    0.0000 H       1  UNL1        0.0235
     58 H           3.2237   -1.5417    0.0000 H       1  UNL1        0.0235
     59 H           4.2967    2.7291    0.0000 H       1  UNL1        0.0599
     60 H           4.9212   -4.0568    0.0000 H       1  UNL1        0.0624
     61 H           5.9153    4.0754    0.0000 H       1  UNL1        0.0297
     62 H           5.5242    4.7714    0.0000 H       1  UNL1        0.0297
     63 H           3.4025   -3.8048    0.0000 H       1  UNL1        0.0619
     64 H           4.8091    5.1916    0.0000 H       1  UNL1        0.0271
     65 H           4.0108    5.1947    0.0000 H       1  UNL1        0.0271
     66 H           6.3639   -3.7857    0.0000 H       1  UNL1        0.0236
     67 H           6.9767   -3.1586    0.0000 H       1  UNL1        0.0236
     68 H           5.3335   -4.3537    0.0000 H       1  UNL1        0.0236
     69 H           6.1830   -4.5708    0.0000 H       1  UNL1        0.0236
     70 H           6.4001   -3.7213    0.0000 H       1  UNL1        0.0236
     71 H           6.3496   -2.5458    0.0000 H       1  UNL1        0.0236
     72 H           2.5036    4.8140    0.0000 H       1  UNL1        0.0235
     73 H           1.8860    4.1916    0.0000 H       1  UNL1        0.0235
     74 H           3.5384    5.3741    0.0000 H       1  UNL1        0.0235
     75 H           2.5084    3.5740    0.0000 H       1  UNL1        0.0235
     76 H           2.6906    5.5977    0.0000 H       1  UNL1        0.0235
     77 H           2.4670    4.7499    0.0000 H       1  UNL1        0.0235
     78 H           3.8506   -5.0620    0.0000 H       1  UNL1        0.2099
     79 H           2.0000   -3.3694    0.0000 H       1  UNL1        0.2099
@<TRIPOS>BOND
     1     1     2    1
     2     1     7    1
     3     2    15    1
     4    25     3    1
     5     3    78    1
     6    27     4    1
     7     4    79    1
     8     5     6    1
     9     5     7    1
    10     5    14    1
    11     5    20    1
    12     6     9    1
    13     6    12    1
    14     6    34    1
    15     7     8    1
    16     7    19    1
    17     8    10    1
    18     8    13    1
    19     8    22    1
    20     9    11    1
    21     9    18    1
    22     9    23    1
    23    10    15    1
    24    10    21    1
    25    10    35    1
    26    11    16    1
    27    11    17    1
    28    11    36    1
    29    12    13    1
    30    12    37    1
    31    12    38    1
    32    13    39    1
    33    13    40    1
    34    14    16    1
    35    14    41    1
    36    14    42    1
    37    15    24    1
    38    15    26    1
    39    16    43    1
    40    16    44    1
    41    17    25    1
    42    17    30    1
    43    17    31    1
    44    18    27    1
    45    18    45    1
    46    18    46    1
    47    19    24    2
    48    19    47    1
    49    20    48    1
    50    20    49    1
    51    20    50    1
    52    21    28    1
    53    21    51    1
    54    21    52    1
    55    22    53    1
    56    22    54    1
    57    22    55    1
    58    23    56    1
    59    23    57    1
    60    23    58    1
    61    24    59    1
    62    25    27    1
    63    25    60    1
    64    26    29    1
    65    26    61    1
    66    26    62    1
    67    27    63    1
    68    28    29    1
    69    28    32    1
    70    28    33    1
    71    29    64    1
    72    29    65    1
    73    30    68    1
    74    30    69    1
    75    30    70    1
    76    31    66    1
    77    31    67    1
    78    31    71    1
    79    32    74    1
    80    32    76    1
    81    32    77    1
    82    33    72    1
    83    33    73    1
    84    33    75    1
