@<TRIPOS>MOLECULE
IMPHY015658
 28 28 0 0 0
SMALL
GASTEIGER

@<TRIPOS>ATOM
      1 O           2.8660   -2.2500    0.0000 O.3     1  UNL1       -0.4922
      2 O           3.7320    2.2500    0.0000 O.3     1  UNL1       -0.4614
      3 O           2.0000    2.2500    0.0000 O.2     1  UNL1       -0.2450
      4 C           2.8660    0.7500    0.0000 C.ar    1  UNL1        0.0592
      5 C           2.8660   -1.2500    0.0000 C.ar    1  UNL1        0.1205
      6 C           3.7320    0.2500    0.0000 C.ar    1  UNL1       -0.0443
      7 C           2.0000    0.2500    0.0000 C.ar    1  UNL1       -0.0443
      8 C           3.7320   -0.7500    0.0000 C.ar    1  UNL1       -0.0192
      9 C           2.0000   -0.7500    0.0000 C.ar    1  UNL1       -0.0192
     10 C           2.0000   -2.7500    0.0000 C.3     1  UNL1        0.0868
     11 C           2.8660    1.7500    0.0000 C.2     1  UNL1        0.3392
     12 C           3.7320    3.2500    0.0000 C.3     1  UNL1        0.0900
     13 C           2.0000   -3.7500    0.0000 C.3     1  UNL1       -0.0307
     14 C           4.5981    3.7500    0.0000 C.3     1  UNL1       -0.0306
     15 H           4.2690    0.5600    0.0000 H       1  UNL1        0.0627
     16 H           1.4631    0.5600    0.0000 H       1  UNL1        0.0627
     17 H           4.2690   -1.0600    0.0000 H       1  UNL1        0.0654
     18 H           1.4631   -1.0600    0.0000 H       1  UNL1        0.0654
     19 H           1.7880   -2.1674    0.0000 H       1  UNL1        0.0694
     20 H           1.3894   -2.8577    0.0000 H       1  UNL1        0.0694
     21 H           3.5200    3.8326    0.0000 H       1  UNL1        0.0695
     22 H           3.1215    3.1423    0.0000 H       1  UNL1        0.0695
     23 H           1.3800   -3.7500    0.0000 H       1  UNL1        0.0262
     24 H           2.0000   -4.3700    0.0000 H       1  UNL1        0.0262
     25 H           2.6200   -3.7500    0.0000 H       1  UNL1        0.0262
     26 H           4.9081    3.2131    0.0000 H       1  UNL1        0.0262
     27 H           5.1350    4.0600    0.0000 H       1  UNL1        0.0262
     28 H           4.2881    4.2869    0.0000 H       1  UNL1        0.0262
@<TRIPOS>BOND
     1     1     5    1
     2     1    10    1
     3     2    11    1
     4     2    12    1
     5     3    11    2
     6     4     6   ar
     7     4     7   ar
     8     4    11    1
     9     5     8   ar
    10     5     9   ar
    11     6     8   ar
    12     6    15    1
    13     7     9   ar
    14     7    16    1
    15     8    17    1
    16     9    18    1
    17    10    13    1
    18    10    19    1
    19    10    20    1
    20    12    14    1
    21    12    21    1
    22    12    22    1
    23    13    23    1
    24    13    24    1
    25    13    25    1
    26    14    26    1
    27    14    27    1
    28    14    28    1
