@<TRIPOS>MOLECULE
IMPHY009608
 59 60 0 0 0
SMALL
GASTEIGER

@<TRIPOS>ATOM
      1 O           6.3301   -0.4400    0.0000 O.3     1  UNL1       -0.3874
      2 O           5.4641    0.0600    0.0000 O.3     1  UNL1       -0.3872
      3 O          10.6603   -1.9400    0.0000 O.3     1  UNL1       -0.4878
      4 O          14.1523   -1.9747    0.0000 O.2     1  UNL1       -0.4220
      5 O          15.9224   -1.9642    0.0000 O.2     1  UNL1       -0.2452
      6 C           6.3301   -1.4400    0.0000 C.3     1  UNL1        0.0773
      7 C           4.5981   -0.4400    0.0000 C.3     1  UNL1        0.0795
      8 C           4.5981   -1.4400    0.0000 C.2     1  UNL1       -0.0458
      9 C           7.1962   -1.9400    0.0000 C.3     1  UNL1       -0.0022
     10 C           5.4641   -1.9400    0.0000 C.2     1  UNL1       -0.0542
     11 C           3.7320    0.0600    0.0000 C.3     1  UNL1       -0.0045
     12 C           8.0622   -1.4400    0.0000 C.2     1  UNL1       -0.0706
     13 C           3.7320   -1.9400    0.0000 C.3     1  UNL1       -0.0413
     14 C           3.7320    1.0600    0.0000 C.2     1  UNL1       -0.0825
     15 C           8.9282   -1.9400    0.0000 C.2     1  UNL1       -0.0480
     16 C           8.0622   -0.4400    0.0000 C.3     1  UNL1       -0.0436
     17 C           2.8660    1.5600    0.0000 C.2     1  UNL1       -0.0795
     18 C           9.7942   -1.4400    0.0000 C.3     1  UNL1        0.1081
     19 C           2.8660    2.5600    0.0000 C.3     1  UNL1       -0.0440
     20 C           2.0000    1.0600    0.0000 C.3     1  UNL1       -0.0440
     21 C          11.5263   -1.4400    0.0000 C.ar    1  UNL1        0.1245
     22 C          13.2583   -0.4400    0.0000 C.ar    1  UNL1        0.0178
     23 C          13.2583   -1.4400    0.0000 C.ar    1  UNL1        0.1425
     24 C          12.3923   -1.9400    0.0000 C.ar    1  UNL1        0.0231
     25 C          11.5263   -0.4400    0.0000 C.ar    1  UNL1       -0.0191
     26 C          12.3923    0.0600    0.0000 C.ar    1  UNL1       -0.0476
     27 C          14.1523    0.0947    0.0000 C.ar    1  UNL1       -0.0443
     28 C          15.0583   -0.4192    0.0000 C.ar    1  UNL1        0.0236
     29 C          15.0583   -1.4608    0.0000 C.ar    1  UNL1        0.3372
     30 H           6.8671   -1.1300    0.0000 H       1  UNL1        0.0641
     31 H           4.5981    0.1800    0.0000 H       1  UNL1        0.0643
     32 H           6.7976   -2.4150    0.0000 H       1  UNL1        0.0338
     33 H           7.5947   -2.4150    0.0000 H       1  UNL1        0.0338
     34 H           5.4641   -2.5600    0.0000 H       1  UNL1        0.0598
     35 H           3.1215    0.1677    0.0000 H       1  UNL1        0.0336
     36 H           3.5200   -0.5226    0.0000 H       1  UNL1        0.0336
     37 H           3.4220   -1.4031    0.0000 H       1  UNL1        0.0275
     38 H           3.1951   -2.2500    0.0000 H       1  UNL1        0.0275
     39 H           4.0420   -2.4769    0.0000 H       1  UNL1        0.0275
     40 H           4.2690    1.3700    0.0000 H       1  UNL1        0.0572
     41 H           8.9282   -2.5600    0.0000 H       1  UNL1        0.0605
     42 H           8.6822   -0.4400    0.0000 H       1  UNL1        0.0274
     43 H           8.0622    0.1800    0.0000 H       1  UNL1        0.0274
     44 H           7.4422   -0.4400    0.0000 H       1  UNL1        0.0274
     45 H           6.8671   -0.1300    0.0000 H       1  UNL1        0.2102
     46 H          10.1928   -0.9651    0.0000 H       1  UNL1        0.0742
     47 H           9.3957   -0.9651    0.0000 H       1  UNL1        0.0742
     48 H           5.4641    0.6800    0.0000 H       1  UNL1        0.2102
     49 H           3.4860    2.5600    0.0000 H       1  UNL1        0.0274
     50 H           1.6900    1.5969    0.0000 H       1  UNL1        0.0274
     51 H           1.4631    0.7500    0.0000 H       1  UNL1        0.0274
     52 H           2.8660    3.1800    0.0000 H       1  UNL1        0.0274
     53 H           2.2460    2.5600    0.0000 H       1  UNL1        0.0274
     54 H           2.3100    0.5231    0.0000 H       1  UNL1        0.0274
     55 H          12.3923   -2.5600    0.0000 H       1  UNL1        0.0691
     56 H          10.9893   -0.1300    0.0000 H       1  UNL1        0.0654
     57 H          12.3923    0.6800    0.0000 H       1  UNL1        0.0626
     58 H          14.1451    0.7146    0.0000 H       1  UNL1        0.0627
     59 H          15.5941   -0.1071    0.0000 H       1  UNL1        0.0689
@<TRIPOS>BOND
     1     1     6    1
     2     1    45    1
     3     2     7    1
     4     2    48    1
     5     3    18    1
     6     3    21    1
     7     4    23   ar
     8     4    29   ar
     9     5    29    2
    10     6     9    1
    11     6    10    1
    12     6    30    1
    13     7     8    1
    14     7    11    1
    15     7    31    1
    16     8    10    2
    17     8    13    1
    18     9    12    1
    19     9    32    1
    20     9    33    1
    21    10    34    1
    22    11    14    1
    23    11    35    1
    24    11    36    1
    25    12    15    2
    26    12    16    1
    27    13    37    1
    28    13    38    1
    29    13    39    1
    30    14    17    2
    31    14    40    1
    32    15    18    1
    33    15    41    1
    34    16    42    1
    35    16    43    1
    36    16    44    1
    37    17    19    1
    38    17    20    1
    39    18    46    1
    40    18    47    1
    41    19    49    1
    42    19    52    1
    43    19    53    1
    44    20    50    1
    45    20    51    1
    46    20    54    1
    47    21    24   ar
    48    21    25   ar
    49    22    23   ar
    50    22    26   ar
    51    22    27   ar
    52    23    24   ar
    53    24    55    1
    54    25    26   ar
    55    25    56    1
    56    26    57    1
    57    27    28   ar
    58    27    58    1
    59    28    29   ar
    60    28    59    1
