@<TRIPOS>MOLECULE
IMPHY007646
 34 37 0 0 0
SMALL
GASTEIGER

@<TRIPOS>ATOM
      1 O           2.4556    0.1819    0.0000 O.3     1  UNL1       -0.3606
      2 O           4.7166    2.1755    0.0000 O.3     1  UNL1       -0.4572
      3 O           5.8204   -1.0595    0.0000 O.3     1  UNL1       -0.4529
      4 O           6.3044    2.9845    0.0000 O.2     1  UNL1       -0.2453
      5 O           6.2209   -2.7489    0.0000 O.2     1  UNL1       -0.2449
      6 C           3.3895   -0.1768    0.0000 C.3     1  UNL1        0.1005
      7 C           2.6124   -0.8062    0.0000 C.3     1  UNL1        0.1067
      8 C           3.4940    0.8177    0.0000 C.3     1  UNL1        0.0168
      9 C           4.4076    1.2244    0.0000 C.3     1  UNL1        0.1167
     10 C           5.2166    0.6366    0.0000 C.3     1  UNL1        0.0682
     11 C           3.2850   -1.1714    0.0000 C.3     1  UNL1       -0.0329
     12 C           5.1121   -0.3579    0.0000 C.3     1  UNL1        0.1330
     13 C           2.7688   -1.7938    0.0000 C.2     1  UNL1       -0.0521
     14 C           6.0256    1.2244    0.0000 C.2     1  UNL1        0.0399
     15 C           4.4091   -1.2375    0.0000 C.2     1  UNL1       -0.0293
     16 C           5.7166    2.1755    0.0000 C.2     1  UNL1        0.3354
     17 C           3.5778   -2.3816    0.0000 C.2     1  UNL1       -0.0494
     18 C           4.5655   -2.2252    0.0000 C.2     1  UNL1        0.0584
     19 C           5.5403   -2.0163    0.0000 C.2     1  UNL1        0.3396
     20 C           6.9767    0.9154    0.0000 C.2     1  UNL1       -0.0882
     21 H           1.7728   -0.9392    0.0000 H       1  UNL1        0.0670
     22 H           3.3440    1.4193    0.0000 H       1  UNL1        0.0330
     23 H           2.8755    0.7744    0.0000 H       1  UNL1        0.0330
     24 H           3.7199    1.7240    0.0000 H       1  UNL1        0.0742
     25 H           5.9043    0.1370    0.0000 H       1  UNL1        0.0427
     26 H           2.6684   -1.1066    0.0000 H       1  UNL1        0.0258
     27 H           3.2202   -1.7880    0.0000 H       1  UNL1        0.0258
     28 H           3.9016   -1.2362    0.0000 H       1  UNL1        0.0258
     29 H           4.3257   -0.0351    0.0000 H       1  UNL1        0.0787
     30 H           2.2402   -2.1178    0.0000 H       1  UNL1        0.0599
     31 H           3.8097   -1.0790    0.0000 H       1  UNL1        0.0617
     32 H           3.4331   -2.9845    0.0000 H       1  UNL1        0.0623
     33 H           7.1056    0.3090    0.0000 H       1  UNL1        0.0540
     34 H           7.4374    1.3303    0.0000 H       1  UNL1        0.0540
@<TRIPOS>BOND
     1     1     6    1
     2     1     7    1
     3     2     9    1
     4     2    16    1
     5     3    12    1
     6     3    19    1
     7     4    16    2
     8     5    19    2
     9     6     7    1
    10     6     8    1
    11     6    11    1
    12     7    13    1
    13     7    21    1
    14     8     9    1
    15     8    22    1
    16     8    23    1
    17     9    10    1
    18     9    24    1
    19    10    12    1
    20    10    14    1
    21    10    25    1
    22    11    26    1
    23    11    27    1
    24    11    28    1
    25    12    15    1
    26    12    29    1
    27    13    17    2
    28    13    30    1
    29    14    16    1
    30    14    20    2
    31    15    18    2
    32    15    31    1
    33    17    18    1
    34    17    32    1
    35    18    19    1
    36    20    33    1
    37    20    34    1
