@<TRIPOS>MOLECULE
IMPHY009661
 44 45 0 0 0
SMALL
GASTEIGER

@<TRIPOS>ATOM
      1 O           4.5981   -2.2723    0.0000 O.2     1  UNL1       -0.2836
      2 O           4.5981    1.7277    0.0000 O.2     1  UNL1       -0.2836
      3 O           2.8660   -1.2723    0.0000 O.2     1  UNL1       -0.4883
      4 O           2.8660    0.7277    0.0000 O.2     1  UNL1       -0.4883
      5 C           6.3580   -1.3070    0.0000 C.3     1  UNL1        0.0148
      6 C           7.2641   -0.7931    0.0000 C.3     1  UNL1       -0.0392
      7 C           6.3580    0.7624    0.0000 C.3     1  UNL1        0.0089
      8 C           7.2641    0.2485    0.0000 C.3     1  UNL1       -0.0413
      9 C           5.4641   -0.7723    0.0000 C.2     1  UNL1        0.0202
     10 C           5.4641    0.2277    0.0000 C.2     1  UNL1        0.0179
     11 C           5.8481   -2.1671    0.0000 C.3     1  UNL1       -0.0519
     12 C           6.8480   -2.1787    0.0000 C.2     1  UNL1       -0.0808
     13 C           6.3465    1.7623    0.0000 C.2     1  UNL1       -0.0722
     14 C           4.5981   -1.2723    0.0000 C.2     1  UNL1        0.2284
     15 C           4.5981    0.7277    0.0000 C.2     1  UNL1        0.2282
     16 C           3.7320   -0.7723    0.0000 C.2     1  UNL1        0.2128
     17 C           3.7320    0.2277    0.0000 C.2     1  UNL1        0.2128
     18 C           7.2067    2.2723    0.0000 C.3     1  UNL1       -0.0435
     19 C           7.8479   -2.1903    0.0000 C.2     1  UNL1       -0.1018
     20 C           5.4747    2.2523    0.0000 C.2     1  UNL1       -0.0991
     21 C           2.0000   -0.7723    0.0000 C.3     1  UNL1        0.0791
     22 C           2.8660    1.7277    0.0000 C.3     1  UNL1        0.0791
     23 H           7.4732   -1.3768    0.0000 H       1  UNL1        0.0277
     24 H           7.8750   -0.6870    0.0000 H       1  UNL1        0.0277
     25 H           7.0900    1.1944    0.0000 H       1  UNL1        0.0395
     26 H           7.8750    0.1424    0.0000 H       1  UNL1        0.0275
     27 H           7.4732    0.8322    0.0000 H       1  UNL1        0.0275
     28 H           5.3148   -1.8510    0.0000 H       1  UNL1        0.0241
     29 H           5.5319   -2.7004    0.0000 H       1  UNL1        0.0241
     30 H           6.3814   -2.4833    0.0000 H       1  UNL1        0.0241
     31 H           6.5318   -2.7120    0.0000 H       1  UNL1        0.0575
     32 H           7.5228    1.7390    0.0000 H       1  UNL1        0.0274
     33 H           7.7400    2.5885    0.0000 H       1  UNL1        0.0274
     34 H           6.8905    2.8056    0.0000 H       1  UNL1        0.0274
     35 H           8.1517   -2.7308    0.0000 H       1  UNL1        0.0532
     36 H           8.1641   -1.6570    0.0000 H       1  UNL1        0.0532
     37 H           5.4676    2.8722    0.0000 H       1  UNL1        0.0534
     38 H           4.9414    1.9361    0.0000 H       1  UNL1        0.0534
     39 H           2.3100   -0.2354    0.0000 H       1  UNL1        0.0660
     40 H           1.4631   -0.4623    0.0000 H       1  UNL1        0.0660
     41 H           1.6900   -1.3092    0.0000 H       1  UNL1        0.0660
     42 H           3.4860    1.7277    0.0000 H       1  UNL1        0.0660
     43 H           2.8660    2.3477    0.0000 H       1  UNL1        0.0660
     44 H           2.2460    1.7277    0.0000 H       1  UNL1        0.0660
@<TRIPOS>BOND
     1     1    14    2
     2     2    15    2
     3     3    16    1
     4     3    21    1
     5     4    17    1
     6     4    22    1
     7     5     6    1
     8     5     9    1
     9     5    11    1
    10     5    12    1
    11     6     8    1
    12     6    23    1
    13     6    24    1
    14     7     8    1
    15     7    10    1
    16     7    13    1
    17     7    25    1
    18     8    26    1
    19     8    27    1
    20     9    10    2
    21     9    14    1
    22    10    15    1
    23    11    28    1
    24    11    29    1
    25    11    30    1
    26    12    19    2
    27    12    31    1
    28    13    18    1
    29    13    20    2
    30    14    16    1
    31    15    17    1
    32    16    17    2
    33    18    32    1
    34    18    33    1
    35    18    34    1
    36    19    35    1
    37    19    36    1
    38    20    37    1
    39    20    38    1
    40    21    39    1
    41    21    40    1
    42    21    41    1
    43    22    42    1
    44    22    43    1
    45    22    44    1
