@<TRIPOS>MOLECULE
IMPHY016819
 20 20 0 0 0
SMALL
GASTEIGER

@<TRIPOS>ATOM
      1 O           2.8660    0.1900    0.0000 O.3     1  UNL1       -0.4897
      2 O           4.5981    2.1900    0.0000 O.3     1  UNL1       -0.3917
      3 C           3.7320    0.6900    0.0000 C.3     1  UNL1        0.1126
      4 C           2.8660   -0.8100    0.0000 C.ar    1  UNL1        0.1206
      5 C           3.7320    1.6900    0.0000 C.3     1  UNL1        0.0783
      6 C           2.0000   -1.3100    0.0000 C.ar    1  UNL1       -0.0199
      7 C           3.7320   -1.3100    0.0000 C.ar    1  UNL1       -0.0199
      8 C           2.0000   -2.3100    0.0000 C.ar    1  UNL1       -0.0583
      9 C           3.7320   -2.3100    0.0000 C.ar    1  UNL1       -0.0583
     10 C           2.8660   -2.8100    0.0000 C.ar    1  UNL1       -0.0615
     11 H           3.9441    0.1074    0.0000 H       1  UNL1        0.0720
     12 H           4.3426    0.7977    0.0000 H       1  UNL1        0.0720
     13 H           3.5200    2.2726    0.0000 H       1  UNL1        0.0591
     14 H           3.1215    1.5823    0.0000 H       1  UNL1        0.0591
     15 H           1.4631   -1.0000    0.0000 H       1  UNL1        0.0654
     16 H           4.2690   -1.0000    0.0000 H       1  UNL1        0.0654
     17 H           1.4631   -2.6200    0.0000 H       1  UNL1        0.0619
     18 H           4.2690   -2.6200    0.0000 H       1  UNL1        0.0619
     19 H           2.8660   -3.4300    0.0000 H       1  UNL1        0.0618
     20 H           4.5981    2.8100    0.0000 H       1  UNL1        0.2095
@<TRIPOS>BOND
     1     1     3    1
     2     1     4    1
     3     2     5    1
     4     2    20    1
     5     3     5    1
     6     3    11    1
     7     3    12    1
     8     4     6   ar
     9     4     7   ar
    10     5    13    1
    11     5    14    1
    12     6     8   ar
    13     6    15    1
    14     7     9   ar
    15     7    16    1
    16     8    10   ar
    17     8    17    1
    18     9    10   ar
    19     9    18    1
    20    10    19    1
