@<TRIPOS>MOLECULE
IMPHY017505
 25 25 0 0 0
SMALL
GASTEIGER

@<TRIPOS>ATOM
      1 O           3.7320   -1.9330    0.0000 O.2     1  UNL1       -0.2879
      2 C           3.7320    1.0670    0.0000 C.3     1  UNL1        0.0072
      3 C           4.2320    1.9330    0.0000 C.3     1  UNL1       -0.0433
      4 C           2.8660    0.5670    0.0000 C.2     1  UNL1       -0.0594
      5 C           3.2320    1.9330    0.0000 C.3     1  UNL1       -0.0524
      6 C           4.5981    0.5670    0.0000 C.2     1  UNL1       -0.0705
      7 C           5.2320    1.9330    0.0000 C.3     1  UNL1       -0.0642
      8 C           2.8660   -0.4330    0.0000 C.2     1  UNL1       -0.0152
      9 C           2.0000    1.0670    0.0000 C.3     1  UNL1       -0.0426
     10 C           4.5981   -0.4330    0.0000 C.2     1  UNL1       -0.0181
     11 C           3.7320   -0.9330    0.0000 C.2     1  UNL1        0.1787
     12 H           4.3397    2.5436    0.0000 H       1  UNL1        0.0274
     13 H           3.6494    2.1451    0.0000 H       1  UNL1        0.0274
     14 H           3.7690    2.2430    0.0000 H       1  UNL1        0.0241
     15 H           2.9220    2.4700    0.0000 H       1  UNL1        0.0241
     16 H           2.6951    1.6230    0.0000 H       1  UNL1        0.0241
     17 H           5.1350    0.8770    0.0000 H       1  UNL1        0.0582
     18 H           5.2320    1.3130    0.0000 H       1  UNL1        0.0230
     19 H           5.8520    1.9330    0.0000 H       1  UNL1        0.0230
     20 H           5.2320    2.5530    0.0000 H       1  UNL1        0.0230
     21 H           2.3291   -0.7430    0.0000 H       1  UNL1        0.0655
     22 H           2.3100    1.6039    0.0000 H       1  UNL1        0.0275
     23 H           1.4631    1.3770    0.0000 H       1  UNL1        0.0275
     24 H           1.6900    0.5301    0.0000 H       1  UNL1        0.0275
     25 H           5.1350   -0.7430    0.0000 H       1  UNL1        0.0653
@<TRIPOS>BOND
     1     1    11    2
     2     2     3    1
     3     2     4    1
     4     2     5    1
     5     2     6    1
     6     3     7    1
     7     3    12    1
     8     3    13    1
     9     4     8    2
    10     4     9    1
    11     5    14    1
    12     5    15    1
    13     5    16    1
    14     6    10    2
    15     6    17    1
    16     7    18    1
    17     7    19    1
    18     7    20    1
    19     8    11    1
    20     8    21    1
    21     9    22    1
    22     9    23    1
    23     9    24    1
    24    10    11    1
    25    10    25    1
