@<TRIPOS>MOLECULE
IMPHY017714
 28 27 0 0 0
SMALL
GASTEIGER

@<TRIPOS>ATOM
      1 O           4.5981   -0.2500    0.0000 O.3     1  UNL1       -0.4580
      2 O           7.1962    0.2500    0.0000 O.3     1  UNL1       -0.4580
      3 O           3.7320    1.2500    0.0000 O.2     1  UNL1       -0.2453
      4 O           8.0622   -1.2500    0.0000 O.2     1  UNL1       -0.2453
      5 C           5.4641    0.2500    0.0000 C.3     1  UNL1        0.1268
      6 C           6.3301   -0.2500    0.0000 C.3     1  UNL1        0.1268
      7 C           3.7320    0.2500    0.0000 C.2     1  UNL1        0.3344
      8 C           8.0622   -0.2500    0.0000 C.2     1  UNL1        0.3344
      9 C           2.8660   -0.2500    0.0000 C.2     1  UNL1        0.0264
     10 C           8.9282    0.2500    0.0000 C.2     1  UNL1        0.0264
     11 C           2.0000    0.2500    0.0000 C.3     1  UNL1       -0.0335
     12 C           9.7942   -0.2500    0.0000 C.3     1  UNL1       -0.0335
     13 C           2.8660   -1.2500    0.0000 C.2     1  UNL1       -0.0890
     14 C           8.9282    1.2500    0.0000 C.2     1  UNL1       -0.0890
     15 H           5.8626    0.7249    0.0000 H       1  UNL1        0.0732
     16 H           5.0656    0.7249    0.0000 H       1  UNL1        0.0732
     17 H           5.9316   -0.7249    0.0000 H       1  UNL1        0.0732
     18 H           6.7287   -0.7249    0.0000 H       1  UNL1        0.0732
     19 H           2.3100    0.7869    0.0000 H       1  UNL1        0.0280
     20 H           1.4631    0.5600    0.0000 H       1  UNL1        0.0280
     21 H           1.6900   -0.2869    0.0000 H       1  UNL1        0.0280
     22 H           9.4842   -0.7869    0.0000 H       1  UNL1        0.0280
     23 H          10.3312   -0.5600    0.0000 H       1  UNL1        0.0280
     24 H          10.1042    0.2869    0.0000 H       1  UNL1        0.0280
     25 H           2.3291   -1.5600    0.0000 H       1  UNL1        0.0540
     26 H           3.4030   -1.5600    0.0000 H       1  UNL1        0.0540
     27 H           9.4651    1.5600    0.0000 H       1  UNL1        0.0540
     28 H           8.3913    1.5600    0.0000 H       1  UNL1        0.0540
@<TRIPOS>BOND
     1     1     5    1
     2     1     7    1
     3     2     6    1
     4     2     8    1
     5     3     7    2
     6     4     8    2
     7     5     6    1
     8     5    15    1
     9     5    16    1
    10     6    17    1
    11     6    18    1
    12     7     9    1
    13     8    10    1
    14     9    11    1
    15     9    13    2
    16    10    12    1
    17    10    14    2
    18    11    19    1
    19    11    20    1
    20    11    21    1
    21    12    22    1
    22    12    23    1
    23    12    24    1
    24    13    25    1
    25    13    26    1
    26    14    27    1
    27    14    28    1
