@<TRIPOS>MOLECULE
IMPHY013164
 62 65 0 0 0
SMALL
GASTEIGER

@<TRIPOS>ATOM
      1 O          12.5346   -2.3028    0.0000 O.3     1  UNL1       -0.4837
      2 O           8.9624   -2.5327    0.0000 O.2     1  UNL1       -0.4618
      3 O          10.7224    0.5019    0.0000 O.3     1  UNL1       -0.5055
      4 O           4.6000    1.0361    0.0000 O.3     1  UNL1       -0.4751
      5 O           8.9740    0.5365    0.0000 O.2     1  UNL1       -0.2863
      6 O           6.3359    2.0294    0.0000 O.3     1  UNL1       -0.4913
      7 O           4.5923   -0.9639    0.0000 O.3     1  UNL1       -0.4913
      8 C          13.1182   -1.4981    0.0000 C.3     1  UNL1        0.1249
      9 C          12.5346   -0.6933    0.0000 C.3     1  UNL1        0.0204
     10 C          11.5884   -0.9981    0.0000 C.ar    1  UNL1        0.0404
     11 C          11.5884   -1.9981    0.0000 C.ar    1  UNL1        0.1317
     12 C          10.7224   -0.4981    0.0000 C.ar    1  UNL1        0.1380
     13 C           9.8564   -0.9981    0.0000 C.ar    1  UNL1        0.1063
     14 C          14.1182   -1.4981    0.0000 C.2     1  UNL1       -0.0395
     15 C          10.7224   -2.4981    0.0000 C.ar    1  UNL1        0.0236
     16 C           9.8564   -1.9981    0.0000 C.ar    1  UNL1        0.1454
     17 C           8.9624   -0.4634    0.0000 C.ar    1  UNL1        0.2037
     18 C           8.0564   -0.9773    0.0000 C.ar    1  UNL1        0.0646
     19 C          14.6182   -2.3641    0.0000 C.3     1  UNL1       -0.0406
     20 C           7.1923   -0.4739    0.0000 C.ar    1  UNL1       -0.0041
     21 C           8.0564   -2.0189    0.0000 C.ar    1  UNL1        0.1038
     22 C          14.6182   -0.6320    0.0000 C.2     1  UNL1       -0.0962
     23 C           3.7320    0.5394    0.0000 C.3     1  UNL1        0.1233
     24 C           5.4641    0.5327    0.0000 C.ar    1  UNL1        0.2046
     25 C           7.1961    0.5261    0.0000 C.ar    1  UNL1       -0.0081
     26 C           6.3243   -0.9706    0.0000 C.ar    1  UNL1       -0.0081
     27 C           6.3320    1.0294    0.0000 C.ar    1  UNL1        0.1658
     28 C           5.4602   -0.4672    0.0000 C.ar    1  UNL1        0.1658
     29 C           3.2354    1.4074    0.0000 C.3     1  UNL1       -0.0215
     30 C           4.2287   -0.3285    0.0000 C.3     1  UNL1       -0.0215
     31 C           2.8641    0.0428    0.0000 C.2     1  UNL1       -0.0487
     32 C           2.0000    0.5461    0.0000 C.2     1  UNL1       -0.0989
     33 C           5.4718    2.5327    0.0000 C.3     1  UNL1        0.0790
     34 C           4.5884   -1.9639    0.0000 C.3     1  UNL1        0.0790
     35 H          13.4000   -2.0504    0.0000 H       1  UNL1        0.0784
     36 H          13.0720   -0.3841    0.0000 H       1  UNL1        0.0355
     37 H          12.2836   -0.1264    0.0000 H       1  UNL1        0.0355
     38 H          10.7224   -3.1181    0.0000 H       1  UNL1        0.0691
     39 H          14.0813   -2.6741    0.0000 H       1  UNL1        0.0275
     40 H          14.9282   -2.9010    0.0000 H       1  UNL1        0.0275
     41 H          15.1552   -2.0541    0.0000 H       1  UNL1        0.0275
     42 H           7.5206   -2.3310    0.0000 H       1  UNL1        0.1037
     43 H          15.2382   -0.6320    0.0000 H       1  UNL1        0.0535
     44 H          14.3082   -0.0951    0.0000 H       1  UNL1        0.0535
     45 H          11.2593    0.8119    0.0000 H       1  UNL1        0.2922
     46 H           7.7342    0.8340    0.0000 H       1  UNL1        0.0661
     47 H           6.3219   -1.5906    0.0000 H       1  UNL1        0.0661
     48 H           3.7735    1.7153    0.0000 H       1  UNL1        0.0271
     49 H           2.9274    1.9455    0.0000 H       1  UNL1        0.0271
     50 H           2.6972    1.0994    0.0000 H       1  UNL1        0.0271
     51 H           3.6906   -0.6365    0.0000 H       1  UNL1        0.0271
     52 H           4.5366   -0.8666    0.0000 H       1  UNL1        0.0271
     53 H           4.7668   -0.0206    0.0000 H       1  UNL1        0.0271
     54 H           2.8617   -0.5772    0.0000 H       1  UNL1        0.0605
     55 H           2.0024    1.1661    0.0000 H       1  UNL1        0.0533
     56 H           1.4619    0.2382    0.0000 H       1  UNL1        0.0533
     57 H           5.7838    3.0685    0.0000 H       1  UNL1        0.0660
     58 H           4.9360    2.8448    0.0000 H       1  UNL1        0.0660
     59 H           5.1597    1.9970    0.0000 H       1  UNL1        0.0660
     60 H           3.9684   -1.9615    0.0000 H       1  UNL1        0.0660
     61 H           4.5860   -2.5839    0.0000 H       1  UNL1        0.0660
     62 H           5.2084   -1.9663    0.0000 H       1  UNL1        0.0660
@<TRIPOS>BOND
     1     1     8    1
     2     1    11    1
     3     2    16   ar
     4     2    21   ar
     5     3    12    1
     6     3    45    1
     7     4    23    1
     8     4    24    1
     9     5    17    2
    10     6    27    1
    11     6    33    1
    12     7    28    1
    13     7    34    1
    14     8     9    1
    15     8    14    1
    16     8    35    1
    17     9    10    1
    18     9    36    1
    19     9    37    1
    20    10    11   ar
    21    10    12   ar
    22    11    15   ar
    23    12    13   ar
    24    13    16   ar
    25    13    17   ar
    26    14    19    1
    27    14    22    2
    28    15    16   ar
    29    15    38    1
    30    17    18   ar
    31    18    20    1
    32    18    21   ar
    33    19    39    1
    34    19    40    1
    35    19    41    1
    36    20    25   ar
    37    20    26   ar
    38    21    42    1
    39    22    43    1
    40    22    44    1
    41    23    29    1
    42    23    30    1
    43    23    31    1
    44    24    27   ar
    45    24    28   ar
    46    25    27   ar
    47    25    46    1
    48    26    28   ar
    49    26    47    1
    50    29    48    1
    51    29    49    1
    52    29    50    1
    53    30    51    1
    54    30    52    1
    55    30    53    1
    56    31    32    2
    57    31    54    1
    58    32    55    1
    59    32    56    1
    60    33    57    1
    61    33    58    1
    62    33    59    1
    63    34    60    1
    64    34    61    1
    65    34    62    1
