@<TRIPOS>MOLECULE
IMPHY004900
 30 32 0 0 0
SMALL
GASTEIGER

@<TRIPOS>ATOM
      1 O           6.0682   -2.0427    0.0000 O.2     1  UNL1       -0.4620
      2 O           6.0682    0.9573    0.0000 O.2     1  UNL1       -0.2864
      3 O           2.5381   -2.0668    0.0000 O.3     1  UNL1       -0.5066
      4 O          10.3984   -0.5427    0.0000 O.3     1  UNL1       -0.5033
      5 O          10.3984    1.4573    0.0000 O.3     1  UNL1       -0.5033
      6 C           6.9343   -0.5427    0.0000 C.ar    1  UNL1        0.0644
      7 C           5.2022   -0.5427    0.0000 C.ar    1  UNL1        0.0648
      8 C           7.8003   -0.0427    0.0000 C.ar    1  UNL1       -0.0076
      9 C           6.0682   -0.0427    0.0000 C.ar    1  UNL1        0.2001
     10 C           5.2022   -1.5427    0.0000 C.ar    1  UNL1        0.1419
     11 C           6.9343   -1.5427    0.0000 C.ar    1  UNL1        0.1038
     12 C           4.3083   -0.0080    0.0000 C.ar    1  UNL1       -0.0439
     13 C           8.6663   -0.5427    0.0000 C.ar    1  UNL1       -0.0086
     14 C           4.3083   -2.0773    0.0000 C.ar    1  UNL1        0.0228
     15 C           7.8003    0.9573    0.0000 C.ar    1  UNL1       -0.0501
     16 C           3.4022   -1.5635    0.0000 C.ar    1  UNL1        0.1204
     17 C           3.4022   -0.5219    0.0000 C.ar    1  UNL1       -0.0193
     18 C           9.5323   -0.0427    0.0000 C.ar    1  UNL1        0.1588
     19 C           8.6663    1.4573    0.0000 C.ar    1  UNL1       -0.0160
     20 C           9.5323    0.9573    0.0000 C.ar    1  UNL1        0.1582
     21 H           7.4712   -1.8527    0.0000 H       1  UNL1        0.1037
     22 H           4.3154    0.6120    0.0000 H       1  UNL1        0.0627
     23 H           8.6663   -1.1627    0.0000 H       1  UNL1        0.0661
     24 H           4.3154   -2.6973    0.0000 H       1  UNL1        0.0691
     25 H           7.2634    1.2673    0.0000 H       1  UNL1        0.0625
     26 H           2.8665   -0.2098    0.0000 H       1  UNL1        0.0654
     27 H           8.6663    2.0773    0.0000 H       1  UNL1        0.0655
     28 H           2.0000   -1.7589    0.0000 H       1  UNL1        0.2921
     29 H          10.3984   -1.1627    0.0000 H       1  UNL1        0.2923
     30 H          10.3984    2.0773    0.0000 H       1  UNL1        0.2923
@<TRIPOS>BOND
     1     1    10   ar
     2     1    11   ar
     3     2     9    2
     4     3    16    1
     5     3    28    1
     6     4    18    1
     7     4    29    1
     8     5    20    1
     9     5    30    1
    10     6     8    1
    11     6     9   ar
    12     6    11   ar
    13     7     9   ar
    14     7    10   ar
    15     7    12   ar
    16     8    13   ar
    17     8    15   ar
    18    10    14   ar
    19    11    21    1
    20    12    17   ar
    21    12    22    1
    22    13    18   ar
    23    13    23    1
    24    14    16   ar
    25    14    24    1
    26    15    19   ar
    27    15    25    1
    28    16    17   ar
    29    17    26    1
    30    18    20   ar
    31    19    20   ar
    32    19    27    1
