@<TRIPOS>MOLECULE
IMPHY008931
 89 89 0 0 0
SMALL
GASTEIGER

@<TRIPOS>ATOM
      1 O           2.3100   -4.6292    0.0000 O.3     1  UNL1       -0.3883
      2 O           7.6401   -3.1292    0.0000 O.3     1  UNL1       -0.4648
      3 O           7.6401   -6.1292    0.0000 O.2     1  UNL1       -0.2960
      4 O           5.6760    0.2010    0.0000 O.3     1  UNL1       -0.3872
      5 O           8.5062   -1.6292    0.0000 O.2     1  UNL1       -0.2512
      6 C           4.1760   -4.1292    0.0000 C.3     1  UNL1        0.0033
      7 C           3.3100   -4.6292    0.0000 C.3     1  UNL1        0.0695
      8 C           5.0420   -4.6292    0.0000 C.3     1  UNL1       -0.0112
      9 C           3.3100   -5.6292    0.0000 C.3     1  UNL1       -0.0200
     10 C           4.6760   -3.2631    0.0000 C.3     1  UNL1       -0.0410
     11 C           5.0420   -5.6292    0.0000 C.2     1  UNL1       -0.0598
     12 C           4.1760   -6.1292    0.0000 C.3     1  UNL1       -0.0282
     13 C           3.6760   -3.2631    0.0000 C.3     1  UNL1       -0.0564
     14 C           5.9081   -4.1292    0.0000 C.3     1  UNL1       -0.0428
     15 C           2.8100   -3.7631    0.0000 C.3     1  UNL1       -0.0355
     16 C           4.1760   -2.3971    0.0000 C.3     1  UNL1       -0.0338
     17 C           5.9081   -3.1292    0.0000 C.3     1  UNL1       -0.0180
     18 C           5.9081   -6.1292    0.0000 C.2     1  UNL1       -0.0117
     19 C           4.6760   -1.5311    0.0000 C.2     1  UNL1       -0.0826
     20 C           6.7741   -2.6292    0.0000 C.3     1  UNL1        0.0925
     21 C           5.9081   -7.1292    0.0000 C.3     1  UNL1       -0.0367
     22 C           6.7741   -5.6292    0.0000 C.2     1  UNL1        0.1460
     23 C           4.1760   -0.6651    0.0000 C.2     1  UNL1       -0.0482
     24 C           4.6760    0.2010    0.0000 C.3     1  UNL1        0.0794
     25 C           3.1760   -0.6651    0.0000 C.3     1  UNL1       -0.0414
     26 C           4.1760    1.0670    0.0000 C.3     1  UNL1       -0.0045
     27 C           8.5062   -2.6292    0.0000 C.2     1  UNL1        0.3039
     28 C           4.6760    1.9330    0.0000 C.2     1  UNL1       -0.0823
     29 C           9.3722   -3.1292    0.0000 C.3     1  UNL1        0.0332
     30 C           4.1760    2.7990    0.0000 C.2     1  UNL1       -0.0761
     31 C           4.6760    3.6651    0.0000 C.3     1  UNL1       -0.0286
     32 C           3.1760    2.7990    0.0000 C.3     1  UNL1       -0.0438
     33 C           4.1760    4.5311    0.0000 C.3     1  UNL1       -0.0308
     34 C           4.6760    5.3971    0.0000 C.2     1  UNL1       -0.0850
     35 C           4.1760    6.2631    0.0000 C.2     1  UNL1       -0.0796
     36 C           4.6760    7.1292    0.0000 C.3     1  UNL1       -0.0440
     37 C           3.1760    6.2631    0.0000 C.3     1  UNL1       -0.0440
     38 H           5.0420   -4.0092    0.0000 H       1  UNL1        0.0352
     39 H           2.6994   -5.5215    0.0000 H       1  UNL1        0.0296
     40 H           3.0980   -6.2118    0.0000 H       1  UNL1        0.0296
     41 H           5.1510   -3.6617    0.0000 H       1  UNL1        0.0275
     42 H           5.1510   -2.8646    0.0000 H       1  UNL1        0.0275
     43 H           3.7775   -6.6041    0.0000 H       1  UNL1        0.0311
     44 H           4.5746   -6.6041    0.0000 H       1  UNL1        0.0311
     45 H           4.2130   -2.9531    0.0000 H       1  UNL1        0.0236
     46 H           3.3660   -2.7262    0.0000 H       1  UNL1        0.0236
     47 H           3.1391   -3.5731    0.0000 H       1  UNL1        0.0236
     48 H           6.1201   -4.7118    0.0000 H       1  UNL1        0.0272
     49 H           6.5187   -4.0215    0.0000 H       1  UNL1        0.0272
     50 H           3.3469   -3.4531    0.0000 H       1  UNL1        0.0257
     51 H           2.5000   -3.2262    0.0000 H       1  UNL1        0.0257
     52 H           2.2731   -4.0731    0.0000 H       1  UNL1        0.0257
     53 H           3.7011   -1.9986    0.0000 H       1  UNL1        0.0308
     54 H           3.7011   -2.7956    0.0000 H       1  UNL1        0.0308
     55 H           2.0000   -5.1661    0.0000 H       1  UNL1        0.2102
     56 H           5.6960   -2.5466    0.0000 H       1  UNL1        0.0298
     57 H           5.2975   -3.2368    0.0000 H       1  UNL1        0.0298
     58 H           5.2960   -1.5311    0.0000 H       1  UNL1        0.0572
     59 H           7.1726   -2.1542    0.0000 H       1  UNL1        0.0697
     60 H           6.3756   -2.1542    0.0000 H       1  UNL1        0.0697
     61 H           5.2881   -7.1292    0.0000 H       1  UNL1        0.0278
     62 H           5.9081   -7.7492    0.0000 H       1  UNL1        0.0278
     63 H           6.5281   -7.1292    0.0000 H       1  UNL1        0.0278
     64 H           6.7741   -5.0092    0.0000 H       1  UNL1        0.1078
     65 H           4.9860   -0.3360    0.0000 H       1  UNL1        0.0643
     66 H           3.1760   -0.0451    0.0000 H       1  UNL1        0.0275
     67 H           2.5560   -0.6651    0.0000 H       1  UNL1        0.0275
     68 H           3.1760   -1.2851    0.0000 H       1  UNL1        0.0275
     69 H           3.7011    1.4655    0.0000 H       1  UNL1        0.0336
     70 H           3.7011    0.6685    0.0000 H       1  UNL1        0.0336
     71 H           5.9860    0.7379    0.0000 H       1  UNL1        0.2102
     72 H           5.2960    1.9330    0.0000 H       1  UNL1        0.0572
     73 H           9.0622   -3.6661    0.0000 H       1  UNL1        0.0342
     74 H           9.9091   -3.4392    0.0000 H       1  UNL1        0.0342
     75 H           9.6822   -2.5922    0.0000 H       1  UNL1        0.0342
     76 H           5.1510    3.2665    0.0000 H       1  UNL1        0.0313
     77 H           5.1510    4.0636    0.0000 H       1  UNL1        0.0313
     78 H           3.1760    3.4190    0.0000 H       1  UNL1        0.0274
     79 H           2.5560    2.7990    0.0000 H       1  UNL1        0.0274
     80 H           3.1760    2.1790    0.0000 H       1  UNL1        0.0274
     81 H           3.7011    4.9296    0.0000 H       1  UNL1        0.0310
     82 H           3.7011    4.1326    0.0000 H       1  UNL1        0.0310
     83 H           5.2960    5.3971    0.0000 H       1  UNL1        0.0572
     84 H           3.1760    6.8831    0.0000 H       1  UNL1        0.0274
     85 H           2.5560    6.2631    0.0000 H       1  UNL1        0.0274
     86 H           3.1760    5.6431    0.0000 H       1  UNL1        0.0274
     87 H           5.2130    6.8192    0.0000 H       1  UNL1        0.0274
     88 H           4.9860    7.6661    0.0000 H       1  UNL1        0.0274
     89 H           4.1391    7.4392    0.0000 H       1  UNL1        0.0274
@<TRIPOS>BOND
     1     7     1    1
     2     1    55    1
     3     2    20    1
     4     2    27    1
     5     3    22    2
     6    24     4    1
     7     4    71    1
     8     5    27    2
     9     6     7    1
    10     6     8    1
    11     6    10    1
    12     6    13    1
    13     7     9    1
    14     7    15    1
    15     8    11    1
    16     8    14    1
    17     8    38    1
    18     9    12    1
    19     9    39    1
    20     9    40    1
    21    10    16    1
    22    10    41    1
    23    10    42    1
    24    11    12    1
    25    11    18    2
    26    12    43    1
    27    12    44    1
    28    13    45    1
    29    13    46    1
    30    13    47    1
    31    14    17    1
    32    14    48    1
    33    14    49    1
    34    15    50    1
    35    15    51    1
    36    15    52    1
    37    16    19    1
    38    16    53    1
    39    16    54    1
    40    17    20    1
    41    17    56    1
    42    17    57    1
    43    18    21    1
    44    18    22    1
    45    19    23    2
    46    19    58    1
    47    20    59    1
    48    20    60    1
    49    21    61    1
    50    21    62    1
    51    21    63    1
    52    22    64    1
    53    23    24    1
    54    23    25    1
    55    24    26    1
    56    24    65    1
    57    25    66    1
    58    25    67    1
    59    25    68    1
    60    26    28    1
    61    26    69    1
    62    26    70    1
    63    27    29    1
    64    28    30    2
    65    28    72    1
    66    29    73    1
    67    29    74    1
    68    29    75    1
    69    30    31    1
    70    30    32    1
    71    31    33    1
    72    31    76    1
    73    31    77    1
    74    32    78    1
    75    32    79    1
    76    32    80    1
    77    33    34    1
    78    33    81    1
    79    33    82    1
    80    34    35    2
    81    34    83    1
    82    35    36    1
    83    35    37    1
    84    36    87    1
    85    36    88    1
    86    36    89    1
    87    37    84    1
    88    37    85    1
    89    37    86    1
