@<TRIPOS>MOLECULE
IMPHY012863
 27 29 0 0 0
SMALL
GASTEIGER

@<TRIPOS>ATOM
      1 O           6.0682   -1.0000    0.0000 O.2     1  UNL1       -0.4506
      2 O           6.0682    2.0000    0.0000 O.2     1  UNL1       -0.2863
      3 O           7.8167    2.0346    0.0000 O.3     1  UNL1       -0.5058
      4 O           4.3198   -2.0346    0.0000 O.3     1  UNL1       -0.5009
      5 O           2.5381   -1.0241    0.0000 O.3     1  UNL1       -0.5032
      6 O           9.5984   -1.0241    0.0000 O.3     1  UNL1       -0.5065
      7 C           6.9343    0.5000    0.0000 C.ar    1  UNL1        0.1061
      8 C           5.2022    0.5000    0.0000 C.ar    1  UNL1        0.0686
      9 C           5.2022   -0.5000    0.0000 C.ar    1  UNL1        0.1841
     10 C           6.9343   -0.5000    0.0000 C.ar    1  UNL1        0.1464
     11 C           6.0682    1.0000    0.0000 C.ar    1  UNL1        0.2038
     12 C           7.8282    1.0347    0.0000 C.ar    1  UNL1        0.1347
     13 C           4.3083   -1.0347    0.0000 C.ar    1  UNL1        0.2021
     14 C           4.3083    1.0347    0.0000 C.ar    1  UNL1       -0.0437
     15 C           7.8282   -1.0347    0.0000 C.ar    1  UNL1        0.0231
     16 C           3.4022   -0.5208    0.0000 C.ar    1  UNL1        0.1620
     17 C           8.7343    0.5208    0.0000 C.ar    1  UNL1        0.0223
     18 C           8.7343   -0.5208    0.0000 C.ar    1  UNL1        0.1239
     19 C           3.4022    0.5208    0.0000 C.ar    1  UNL1       -0.0156
     20 H           4.3154    1.6546    0.0000 H       1  UNL1        0.0627
     21 H           7.8210   -1.6546    0.0000 H       1  UNL1        0.0691
     22 H           9.2700    0.8329    0.0000 H       1  UNL1        0.0691
     23 H           2.8665    0.8329    0.0000 H       1  UNL1        0.0655
     24 H           8.3500    2.3508    0.0000 H       1  UNL1        0.2922
     25 H           3.7865   -2.3508    0.0000 H       1  UNL1        0.2924
     26 H           2.0000   -0.7162    0.0000 H       1  UNL1        0.2923
     27 H          10.1365   -0.7162    0.0000 H       1  UNL1        0.2921
@<TRIPOS>BOND
     1     1     9   ar
     2     1    10   ar
     3     2    11    2
     4     3    12    1
     5     3    24    1
     6     4    13    1
     7     4    25    1
     8     5    16    1
     9     5    26    1
    10     6    18    1
    11     6    27    1
    12     7    10   ar
    13     7    11   ar
    14     7    12   ar
    15     8     9   ar
    16     8    11   ar
    17     8    14   ar
    18     9    13   ar
    19    10    15   ar
    20    12    17   ar
    21    13    16   ar
    22    14    19   ar
    23    14    20    1
    24    15    18   ar
    25    15    21    1
    26    16    19   ar
    27    17    18   ar
    28    17    22    1
    29    19    23    1
