@<TRIPOS>MOLECULE
IMPHY012093
 53 52 0 0 0
SMALL
GASTEIGER

@<TRIPOS>ATOM
      1 O          14.1244    0.7500    0.0000 O.3     1  UNL1       -0.4619
      2 O          13.2583   -0.7500    0.0000 O.2     1  UNL1       -0.2508
      3 C           7.1962    0.7500    0.0000 C.3     1  UNL1       -0.0531
      4 C           8.0622    0.2500    0.0000 C.3     1  UNL1       -0.0531
      5 C           6.3301    0.2500    0.0000 C.3     1  UNL1       -0.0531
      6 C           8.9282    0.7500    0.0000 C.3     1  UNL1       -0.0531
      7 C           5.4641    0.7500    0.0000 C.3     1  UNL1       -0.0531
      8 C           9.7942    0.2500    0.0000 C.3     1  UNL1       -0.0530
      9 C           4.5981    0.2500    0.0000 C.3     1  UNL1       -0.0531
     10 C          10.6603    0.7500    0.0000 C.3     1  UNL1       -0.0526
     11 C           3.7320    0.7500    0.0000 C.3     1  UNL1       -0.0533
     12 C          11.5263    0.2500    0.0000 C.3     1  UNL1       -0.0430
     13 C           2.8660    0.2500    0.0000 C.3     1  UNL1       -0.0559
     14 C          12.3923    0.7500    0.0000 C.3     1  UNL1        0.0449
     15 C           2.0000    0.7500    0.0000 C.3     1  UNL1       -0.0653
     16 C          13.2583    0.2500    0.0000 C.2     1  UNL1        0.3073
     17 C          14.9904    0.2500    0.0000 C.3     1  UNL1        0.0975
     18 C          15.8564    0.7500    0.0000 C.3     1  UNL1       -0.0280
     19 C          14.9904   -0.7500    0.0000 C.3     1  UNL1       -0.0280
     20 H           7.5947    1.2250    0.0000 H       1  UNL1        0.0265
     21 H           6.7976    1.2250    0.0000 H       1  UNL1        0.0265
     22 H           7.6636   -0.2249    0.0000 H       1  UNL1        0.0265
     23 H           8.4607   -0.2249    0.0000 H       1  UNL1        0.0265
     24 H           5.9316   -0.2249    0.0000 H       1  UNL1        0.0265
     25 H           6.7287   -0.2249    0.0000 H       1  UNL1        0.0265
     26 H           9.3267    1.2250    0.0000 H       1  UNL1        0.0265
     27 H           8.5297    1.2250    0.0000 H       1  UNL1        0.0265
     28 H           5.8626    1.2250    0.0000 H       1  UNL1        0.0265
     29 H           5.0656    1.2250    0.0000 H       1  UNL1        0.0265
     30 H           9.3957   -0.2249    0.0000 H       1  UNL1        0.0265
     31 H          10.1928   -0.2249    0.0000 H       1  UNL1        0.0265
     32 H           4.1996   -0.2249    0.0000 H       1  UNL1        0.0265
     33 H           4.9966   -0.2249    0.0000 H       1  UNL1        0.0265
     34 H          11.0588    1.2250    0.0000 H       1  UNL1        0.0265
     35 H          10.2617    1.2250    0.0000 H       1  UNL1        0.0265
     36 H           4.1306    1.2250    0.0000 H       1  UNL1        0.0265
     37 H           3.3335    1.2250    0.0000 H       1  UNL1        0.0265
     38 H          11.1278   -0.2249    0.0000 H       1  UNL1        0.0270
     39 H          11.9248   -0.2249    0.0000 H       1  UNL1        0.0270
     40 H           2.4675   -0.2249    0.0000 H       1  UNL1        0.0263
     41 H           3.2646   -0.2249    0.0000 H       1  UNL1        0.0263
     42 H          12.7908    1.2250    0.0000 H       1  UNL1        0.0377
     43 H          11.9938    1.2250    0.0000 H       1  UNL1        0.0377
     44 H           2.3100    1.2869    0.0000 H       1  UNL1        0.0230
     45 H           1.4631    1.0600    0.0000 H       1  UNL1        0.0230
     46 H           1.6900    0.2131    0.0000 H       1  UNL1        0.0230
     47 H          14.9904    0.8700    0.0000 H       1  UNL1        0.0728
     48 H          16.1664    0.2131    0.0000 H       1  UNL1        0.0265
     49 H          16.3933    1.0600    0.0000 H       1  UNL1        0.0265
     50 H          15.5464    1.2869    0.0000 H       1  UNL1        0.0265
     51 H          14.3704   -0.7500    0.0000 H       1  UNL1        0.0265
     52 H          14.9904   -1.3700    0.0000 H       1  UNL1        0.0265
     53 H          15.6104   -0.7500    0.0000 H       1  UNL1        0.0265
@<TRIPOS>BOND
     1     1    16    1
     2     1    17    1
     3     2    16    2
     4     3     4    1
     5     3     5    1
     6     3    20    1
     7     3    21    1
     8     4     6    1
     9     4    22    1
    10     4    23    1
    11     5     7    1
    12     5    24    1
    13     5    25    1
    14     6     8    1
    15     6    26    1
    16     6    27    1
    17     7     9    1
    18     7    28    1
    19     7    29    1
    20     8    10    1
    21     8    30    1
    22     8    31    1
    23     9    11    1
    24     9    32    1
    25     9    33    1
    26    10    12    1
    27    10    34    1
    28    10    35    1
    29    11    13    1
    30    11    36    1
    31    11    37    1
    32    12    14    1
    33    12    38    1
    34    12    39    1
    35    13    15    1
    36    13    40    1
    37    13    41    1
    38    14    16    1
    39    14    42    1
    40    14    43    1
    41    15    44    1
    42    15    45    1
    43    15    46    1
    44    17    18    1
    45    17    19    1
    46    17    47    1
    47    18    48    1
    48    18    49    1
    49    18    50    1
    50    19    51    1
    51    19    52    1
    52    19    53    1
