@<TRIPOS>MOLECULE
IMPHY001769
 48 51 0 0 0
SMALL
GASTEIGER

@<TRIPOS>ATOM
      1 O          11.3520   -1.1897    0.0000 O.3     1  UNL1       -0.4814
      2 O           7.8600   -1.1550    0.0000 O.3     1  UNL1       -0.4942
      3 O           9.5920    1.8450    0.0000 O.3     1  UNL1       -0.5052
      4 O           2.5836    0.6497    0.0000 O.3     1  UNL1       -0.4526
      5 O           2.5836   -0.9597    0.0000 O.3     1  UNL1       -0.4526
      6 O           7.8600    1.8450    0.0000 O.2     1  UNL1       -0.2870
      7 C          12.2580   -0.6758    0.0000 C.3     1  UNL1        0.1235
      8 C          10.4580    0.3450    0.0000 C.ar    1  UNL1        0.0588
      9 C          12.2580    0.3658    0.0000 C.2     1  UNL1       -0.0408
     10 C          10.4580   -0.6550    0.0000 C.ar    1  UNL1        0.1359
     11 C          13.2580   -0.6797    0.0000 C.3     1  UNL1       -0.0215
     12 C          12.7547   -1.5438    0.0000 C.3     1  UNL1       -0.0215
     13 C          11.3520    0.8797    0.0000 C.2     1  UNL1       -0.0478
     14 C           9.5920    0.8450    0.0000 C.ar    1  UNL1        0.1418
     15 C           8.7260    0.3450    0.0000 C.ar    1  UNL1        0.1053
     16 C           9.5920   -1.1550    0.0000 C.ar    1  UNL1        0.0233
     17 C           8.7260   -0.6550    0.0000 C.ar    1  UNL1        0.1379
     18 C           7.8600    0.8450    0.0000 C.2     1  UNL1        0.1931
     19 C           6.9939    0.3450    0.0000 C.2     1  UNL1       -0.0135
     20 C           5.2619    0.3450    0.0000 C.ar    1  UNL1       -0.0212
     21 C           3.5298    0.3450    0.0000 C.ar    1  UNL1        0.1668
     22 C           6.1279    0.8450    0.0000 C.2     1  UNL1       -0.0508
     23 C           3.5298   -0.6550    0.0000 C.ar    1  UNL1        0.1663
     24 C           4.3958    0.8450    0.0000 C.ar    1  UNL1       -0.0090
     25 C           5.2619   -0.6550    0.0000 C.ar    1  UNL1       -0.0509
     26 C           4.3958   -1.1550    0.0000 C.ar    1  UNL1       -0.0156
     27 C           2.0000   -0.1550    0.0000 C.3     1  UNL1        0.2332
     28 C           7.8600   -2.1550    0.0000 C.3     1  UNL1        0.0788
     29 H          12.7938    0.6779    0.0000 H       1  UNL1        0.0611
     30 H          13.2556   -1.2997    0.0000 H       1  UNL1        0.0271
     31 H          12.2166   -1.8517    0.0000 H       1  UNL1        0.0271
     32 H          13.0626   -2.0819    0.0000 H       1  UNL1        0.0271
     33 H          13.2928   -1.2358    0.0000 H       1  UNL1        0.0271
     34 H          13.8780   -0.6821    0.0000 H       1  UNL1        0.0271
     35 H          13.2604   -0.0597    0.0000 H       1  UNL1        0.0271
     36 H          11.3448    1.4996    0.0000 H       1  UNL1        0.0624
     37 H           9.5920   -1.7750    0.0000 H       1  UNL1        0.0691
     38 H           6.9939   -0.2750    0.0000 H       1  UNL1        0.0656
     39 H          10.1289    2.1550    0.0000 H       1  UNL1        0.2922
     40 H           6.1279    1.4650    0.0000 H       1  UNL1        0.0625
     41 H           4.3958    1.4650    0.0000 H       1  UNL1        0.0661
     42 H           5.7988   -0.9650    0.0000 H       1  UNL1        0.0625
     43 H           4.3958   -1.7750    0.0000 H       1  UNL1        0.0655
     44 H           1.5391    0.2597    0.0000 H       1  UNL1        0.1166
     45 H           1.5391   -0.5697    0.0000 H       1  UNL1        0.1166
     46 H           7.2400   -2.1550    0.0000 H       1  UNL1        0.0660
     47 H           7.8600   -2.7750    0.0000 H       1  UNL1        0.0660
     48 H           8.4800   -2.1550    0.0000 H       1  UNL1        0.0660
@<TRIPOS>BOND
     1     1     7    1
     2     1    10    1
     3     2    17    1
     4     2    28    1
     5     3    14    1
     6     3    39    1
     7     4    21    1
     8     4    27    1
     9     5    23    1
    10     5    27    1
    11     6    18    2
    12     7     9    1
    13     7    11    1
    14     7    12    1
    15     8    10   ar
    16     8    13    1
    17     8    14   ar
    18     9    13    2
    19     9    29    1
    20    10    16   ar
    21    11    30    1
    22    11    34    1
    23    11    35    1
    24    12    31    1
    25    12    32    1
    26    12    33    1
    27    13    36    1
    28    14    15   ar
    29    15    17   ar
    30    15    18    1
    31    16    17   ar
    32    16    37    1
    33    18    19    1
    34    19    22    2
    35    19    38    1
    36    20    22    1
    37    20    24   ar
    38    20    25   ar
    39    21    23   ar
    40    21    24   ar
    41    22    40    1
    42    23    26   ar
    43    24    41    1
    44    25    26   ar
    45    25    42    1
    46    26    43    1
    47    27    44    1
    48    27    45    1
    49    28    46    1
    50    28    47    1
    51    28    48    1
