@<TRIPOS>MOLECULE
IMPHY013674
 38 39 0 0 0
SMALL
GASTEIGER

@<TRIPOS>ATOM
      1 O           2.0000    0.5950    0.0000 O.3     1  UNL1       -0.3856
      2 O           2.8660   -3.9050    0.0000 O.3     1  UNL1       -0.5068
      3 O           5.4641    1.5950    0.0000 O.2     1  UNL1       -0.2708
      4 N           3.7320    1.5950    0.0000 N.am    1  UNL1       -0.3090
      5 C           2.8660    0.0950    0.0000 C.3     1  UNL1        0.0956
      6 C           3.7320    0.5950    0.0000 C.3     1  UNL1        0.0420
      7 C           2.8660   -0.9050    0.0000 C.ar    1  UNL1       -0.0174
      8 C           3.7320   -1.4050    0.0000 C.ar    1  UNL1       -0.0526
      9 C           2.0000   -1.4050    0.0000 C.ar    1  UNL1       -0.0526
     10 C           3.7320   -2.4050    0.0000 C.ar    1  UNL1       -0.0198
     11 C           2.0000   -2.4050    0.0000 C.ar    1  UNL1       -0.0198
     12 C           2.8660   -2.9050    0.0000 C.ar    1  UNL1        0.1169
     13 C           4.5981    2.0950    0.0000 C.2     1  UNL1        0.2370
     14 C           4.5981    3.0950    0.0000 C.2     1  UNL1        0.0007
     15 C           6.3301    3.0950    0.0000 C.ar    1  UNL1       -0.0249
     16 C           5.4641    3.5950    0.0000 C.2     1  UNL1       -0.0497
     17 C           6.3301    2.0950    0.0000 C.ar    1  UNL1       -0.0546
     18 C           7.1962    3.5950    0.0000 C.ar    1  UNL1       -0.0546
     19 C           7.1962    1.5950    0.0000 C.ar    1  UNL1       -0.0612
     20 C           8.0622    3.0950    0.0000 C.ar    1  UNL1       -0.0612
     21 C           8.0622    2.0950    0.0000 C.ar    1  UNL1       -0.0617
     22 H           2.8660    0.7150    0.0000 H       1  UNL1        0.0659
     23 H           3.9441    0.0124    0.0000 H       1  UNL1        0.0491
     24 H           4.3426    0.7027    0.0000 H       1  UNL1        0.0491
     25 H           4.2690   -1.0950    0.0000 H       1  UNL1        0.0622
     26 H           1.4631   -1.0950    0.0000 H       1  UNL1        0.0622
     27 H           3.1951    1.9050    0.0000 H       1  UNL1        0.1491
     28 H           4.2690   -2.7150    0.0000 H       1  UNL1        0.0654
     29 H           1.4631   -2.7150    0.0000 H       1  UNL1        0.0654
     30 H           2.0000    1.2150    0.0000 H       1  UNL1        0.2103
     31 H           4.0611    3.4050    0.0000 H       1  UNL1        0.0669
     32 H           5.4641    4.2150    0.0000 H       1  UNL1        0.0625
     33 H           5.7932    1.7850    0.0000 H       1  UNL1        0.0623
     34 H           7.1962    4.2150    0.0000 H       1  UNL1        0.0623
     35 H           7.1962    0.9750    0.0000 H       1  UNL1        0.0618
     36 H           8.5991    3.4050    0.0000 H       1  UNL1        0.0618
     37 H           8.5991    1.7850    0.0000 H       1  UNL1        0.0618
     38 H           2.3291   -4.2150    0.0000 H       1  UNL1        0.2921
@<TRIPOS>BOND
     1     1     5    1
     2     1    30    1
     3     2    12    1
     4     2    38    1
     5     3    13    2
     6     4     6    1
     7     4    13   am
     8     4    27    1
     9     5     6    1
    10     5     7    1
    11     5    22    1
    12     6    23    1
    13     6    24    1
    14     7     8   ar
    15     7     9   ar
    16     8    10   ar
    17     8    25    1
    18     9    11   ar
    19     9    26    1
    20    10    12   ar
    21    10    28    1
    22    11    12   ar
    23    11    29    1
    24    13    14    1
    25    14    16    2
    26    14    31    1
    27    15    16    1
    28    15    17   ar
    29    15    18   ar
    30    16    32    1
    31    17    19   ar
    32    17    33    1
    33    18    20   ar
    34    18    34    1
    35    19    21   ar
    36    19    35    1
    37    20    21   ar
    38    20    36    1
    39    21    37    1
