@<TRIPOS>MOLECULE
IMPHY004920
 38 42 0 0 0
SMALL
GASTEIGER

@<TRIPOS>ATOM
      1 O           8.1588    0.7936    0.0000 O.3     1  UNL1       -0.4520
      2 O           8.1588    2.4031    0.0000 O.3     1  UNL1       -0.4526
      3 O           2.8176   -0.3518    0.0000 O.2     1  UNL1       -0.2756
      4 N           3.7312    1.1197    0.0000 N.am    1  UNL1       -0.2707
      5 C           5.4805    1.0984    0.0000 C.ar    1  UNL1        0.0111
      6 C           5.4805    2.0984    0.0000 C.ar    1  UNL1       -0.0327
      7 C           4.5705    0.5915    0.0000 C.ar    1  UNL1        0.0449
      8 C           4.6223    2.5953    0.0000 C.3     1  UNL1       -0.0107
      9 C           6.3465    0.5984    0.0000 C.ar    1  UNL1        0.0373
     10 C           3.7568    2.1111    0.0000 C.3     1  UNL1        0.0238
     11 C           6.3626   -0.4431    0.0000 C.ar    1  UNL1       -0.0064
     12 C           7.2125    1.0984    0.0000 C.ar    1  UNL1        0.1745
     13 C           6.3465    2.5984    0.0000 C.ar    1  UNL1       -0.0123
     14 C           4.5624   -0.4501    0.0000 C.ar    1  UNL1       -0.0319
     15 C           5.4645   -0.9709    0.0000 C.ar    1  UNL1       -0.0154
     16 C           7.2125    2.0984    0.0000 C.ar    1  UNL1        0.1671
     17 C           2.8496    0.6477    0.0000 C.2     1  UNL1        0.2167
     18 C           7.3145   -0.9638    0.0000 C.ar    1  UNL1       -0.0533
     19 C           5.4562   -2.0559    0.0000 C.ar    1  UNL1       -0.0540
     20 C           8.7424    1.5984    0.0000 C.3     1  UNL1        0.2333
     21 C           7.3312   -2.0486    0.0000 C.ar    1  UNL1       -0.0611
     22 C           6.3958   -2.5984    0.0000 C.ar    1  UNL1       -0.0612
     23 C           2.0000    1.1751    0.0000 C.3     1  UNL1        0.0127
     24 H           5.0233    3.0681    0.0000 H       1  UNL1        0.0329
     25 H           4.2282    3.0740    0.0000 H       1  UNL1        0.0329
     26 H           3.5550    2.6974    0.0000 H       1  UNL1        0.0472
     27 H           3.1440    2.0168    0.0000 H       1  UNL1        0.0472
     28 H           6.3465    3.2184    0.0000 H       1  UNL1        0.0658
     29 H           4.0243   -0.7580    0.0000 H       1  UNL1        0.0642
     30 H           7.8454   -0.6435    0.0000 H       1  UNL1        0.0624
     31 H           4.9180   -2.3638    0.0000 H       1  UNL1        0.0624
     32 H           9.2032    1.1836    0.0000 H       1  UNL1        0.1166
     33 H           9.2032    2.0131    0.0000 H       1  UNL1        0.1166
     34 H           7.8717   -2.3524    0.0000 H       1  UNL1        0.0618
     35 H           6.3982   -3.2184    0.0000 H       1  UNL1        0.0618
     36 H           2.3270    1.7019    0.0000 H       1  UNL1        0.0323
     37 H           1.4732    1.5021    0.0000 H       1  UNL1        0.0323
     38 H           1.6730    0.6484    0.0000 H       1  UNL1        0.0323
@<TRIPOS>BOND
     1     1    12    1
     2     1    20    1
     3     2    16    1
     4     2    20    1
     5     3    17    2
     6     4     7    1
     7     4    10    1
     8     4    17   am
     9     5     6   ar
    10     5     7   ar
    11     5     9   ar
    12     6     8    1
    13     6    13   ar
    14     7    14   ar
    15     8    10    1
    16     8    24    1
    17     8    25    1
    18     9    11   ar
    19     9    12   ar
    20    10    26    1
    21    10    27    1
    22    11    15   ar
    23    11    18   ar
    24    12    16   ar
    25    13    16   ar
    26    13    28    1
    27    14    15   ar
    28    14    29    1
    29    15    19   ar
    30    17    23    1
    31    18    21   ar
    32    18    30    1
    33    19    22   ar
    34    19    31    1
    35    20    32    1
    36    20    33    1
    37    21    22   ar
    38    21    34    1
    39    22    35    1
    40    23    36    1
    41    23    37    1
    42    23    38    1
