@<TRIPOS>MOLECULE
IMPHY017160
 27 26 0 0 0
SMALL
GASTEIGER

@<TRIPOS>ATOM
      1 O           2.5369   -0.0000    0.0000 O.3     1  UNL1       -0.3945
      2 C           4.2690    0.0000    0.0000 C.3     1  UNL1       -0.0117
      3 C           5.1350    0.5000    0.0000 C.3     1  UNL1       -0.0458
      4 C           6.0010    0.0000    0.0000 C.3     1  UNL1       -0.0527
      5 C           3.4030   -0.5000    0.0000 C.3     1  UNL1        0.0493
      6 C           3.7690    0.8660    0.0000 C.3     1  UNL1       -0.0577
      7 C           4.7690   -0.8660    0.0000 C.3     1  UNL1       -0.0577
      8 C           6.8671    0.5000    0.0000 C.3     1  UNL1       -0.0559
      9 C           7.7331   -0.0000    0.0000 C.3     1  UNL1       -0.0653
     10 H           5.5335    0.9749    0.0000 H       1  UNL1        0.0271
     11 H           4.7365    0.9749    0.0000 H       1  UNL1        0.0271
     12 H           5.6025   -0.4749    0.0000 H       1  UNL1        0.0265
     13 H           6.3996   -0.4749    0.0000 H       1  UNL1        0.0265
     14 H           3.0044   -0.9749    0.0000 H       1  UNL1        0.0562
     15 H           3.8015   -0.9749    0.0000 H       1  UNL1        0.0562
     16 H           4.3059    1.1760    0.0000 H       1  UNL1        0.0236
     17 H           3.4590    1.4030    0.0000 H       1  UNL1        0.0236
     18 H           3.2320    0.5560    0.0000 H       1  UNL1        0.0236
     19 H           4.2320   -1.1760    0.0000 H       1  UNL1        0.0236
     20 H           5.0790   -1.4030    0.0000 H       1  UNL1        0.0236
     21 H           5.3059   -0.5560    0.0000 H       1  UNL1        0.0236
     22 H           7.2656    0.9749    0.0000 H       1  UNL1        0.0263
     23 H           6.4685    0.9749    0.0000 H       1  UNL1        0.0263
     24 H           7.4231   -0.5369    0.0000 H       1  UNL1        0.0230
     25 H           8.2700   -0.3100    0.0000 H       1  UNL1        0.0230
     26 H           8.0431    0.5369    0.0000 H       1  UNL1        0.0230
     27 H           2.0000   -0.3100    0.0000 H       1  UNL1        0.2094
@<TRIPOS>BOND
     1     1     5    1
     2     1    27    1
     3     2     3    1
     4     2     5    1
     5     2     6    1
     6     2     7    1
     7     3     4    1
     8     3    10    1
     9     3    11    1
    10     4     8    1
    11     4    12    1
    12     4    13    1
    13     5    14    1
    14     5    15    1
    15     6    16    1
    16     6    17    1
    17     6    18    1
    18     7    19    1
    19     7    20    1
    20     7    21    1
    21     8     9    1
    22     8    22    1
    23     8    23    1
    24     9    24    1
    25     9    25    1
    26     9    26    1
