@<TRIPOS>MOLECULE
IMPHY011721
 53 53 0 0 0
SMALL
GASTEIGER

@<TRIPOS>ATOM
      1 O           6.8301   -2.6160    0.0000 O.3     1  UNL1       -0.3679
      2 O          15.1244   -1.2500    0.0000 O.3     1  UNL1       -0.4806
      3 O          14.2583   -2.7500    0.0000 O.2     1  UNL1       -0.2510
      4 C           7.3301   -1.7500    0.0000 C.3     1  UNL1        0.0855
      5 C           6.3301   -1.7500    0.0000 C.3     1  UNL1        0.0886
      6 C           8.1962   -1.2500    0.0000 C.3     1  UNL1       -0.0241
      7 C           5.4641   -1.2500    0.0000 C.3     1  UNL1       -0.0059
      8 C           9.0622   -1.7500    0.0000 C.3     1  UNL1       -0.0506
      9 C           9.9282   -1.2500    0.0000 C.3     1  UNL1       -0.0530
     10 C          10.7942   -1.7500    0.0000 C.3     1  UNL1       -0.0530
     11 C           4.5981   -1.7500    0.0000 C.2     1  UNL1       -0.0854
     12 C          11.6603   -1.2500    0.0000 C.3     1  UNL1       -0.0526
     13 C           3.7320   -1.2500    0.0000 C.2     1  UNL1       -0.0878
     14 C          12.5263   -1.7500    0.0000 C.3     1  UNL1       -0.0430
     15 C           3.7320   -0.2500    0.0000 C.3     1  UNL1       -0.0348
     16 C           2.8660    0.2500    0.0000 C.3     1  UNL1       -0.0496
     17 C          13.3923   -1.2500    0.0000 C.3     1  UNL1        0.0448
     18 C           2.8660    1.2500    0.0000 C.3     1  UNL1       -0.0530
     19 C           2.0000    1.7500    0.0000 C.3     1  UNL1       -0.0559
     20 C          14.2583   -1.7500    0.0000 C.2     1  UNL1        0.3047
     21 C           2.0000    2.7500    0.0000 C.3     1  UNL1       -0.0653
     22 H           7.7685   -2.1884    0.0000 H       1  UNL1        0.0622
     23 H           5.8917   -2.1884    0.0000 H       1  UNL1        0.0625
     24 H           8.5947   -0.7751    0.0000 H       1  UNL1        0.0291
     25 H           7.7976   -0.7751    0.0000 H       1  UNL1        0.0291
     26 H           5.8626   -0.7751    0.0000 H       1  UNL1        0.0333
     27 H           5.0656   -0.7751    0.0000 H       1  UNL1        0.0333
     28 H           8.6636   -2.2250    0.0000 H       1  UNL1        0.0266
     29 H           9.4607   -2.2250    0.0000 H       1  UNL1        0.0266
     30 H          10.3267   -0.7751    0.0000 H       1  UNL1        0.0265
     31 H           9.5297   -0.7751    0.0000 H       1  UNL1        0.0265
     32 H          10.3957   -2.2250    0.0000 H       1  UNL1        0.0265
     33 H          11.1928   -2.2250    0.0000 H       1  UNL1        0.0265
     34 H           4.5981   -2.3700    0.0000 H       1  UNL1        0.0570
     35 H          12.0588   -0.7751    0.0000 H       1  UNL1        0.0265
     36 H          11.2617   -0.7751    0.0000 H       1  UNL1        0.0265
     37 H           3.1951   -1.5600    0.0000 H       1  UNL1        0.0569
     38 H          12.1278   -2.2250    0.0000 H       1  UNL1        0.0270
     39 H          12.9248   -2.2250    0.0000 H       1  UNL1        0.0270
     40 H           4.3426   -0.3577    0.0000 H       1  UNL1        0.0307
     41 H           3.9441    0.3326    0.0000 H       1  UNL1        0.0307
     42 H           2.2554    0.3577    0.0000 H       1  UNL1        0.0268
     43 H           2.6540   -0.3326    0.0000 H       1  UNL1        0.0268
     44 H          13.7908   -0.7751    0.0000 H       1  UNL1        0.0377
     45 H          12.9938   -0.7751    0.0000 H       1  UNL1        0.0377
     46 H           3.4766    1.1423    0.0000 H       1  UNL1        0.0265
     47 H           3.0781    1.8326    0.0000 H       1  UNL1        0.0265
     48 H           1.3894    1.8577    0.0000 H       1  UNL1        0.0263
     49 H           1.7880    1.1674    0.0000 H       1  UNL1        0.0263
     50 H           2.6200    2.7500    0.0000 H       1  UNL1        0.0230
     51 H           2.0000    3.3700    0.0000 H       1  UNL1        0.0230
     52 H           1.3800    2.7500    0.0000 H       1  UNL1        0.0230
     53 H          15.6613   -1.5600    0.0000 H       1  UNL1        0.2951
@<TRIPOS>BOND
     1     1     4    1
     2     1     5    1
     3     2    20    1
     4     2    53    1
     5     3    20    2
     6     4     5    1
     7     4     6    1
     8     4    22    1
     9     5     7    1
    10     5    23    1
    11     6     8    1
    12     6    24    1
    13     6    25    1
    14     7    11    1
    15     7    26    1
    16     7    27    1
    17     8     9    1
    18     8    28    1
    19     8    29    1
    20     9    10    1
    21     9    30    1
    22     9    31    1
    23    10    12    1
    24    10    32    1
    25    10    33    1
    26    11    13    2
    27    11    34    1
    28    12    14    1
    29    12    35    1
    30    12    36    1
    31    13    15    1
    32    13    37    1
    33    14    17    1
    34    14    38    1
    35    14    39    1
    36    15    16    1
    37    15    40    1
    38    15    41    1
    39    16    18    1
    40    16    42    1
    41    16    43    1
    42    17    20    1
    43    17    44    1
    44    17    45    1
    45    18    19    1
    46    18    46    1
    47    18    47    1
    48    19    21    1
    49    19    48    1
    50    19    49    1
    51    21    50    1
    52    21    51    1
    53    21    52    1
