@<TRIPOS>MOLECULE
IMPHY002140
 50 55 0 0 0
SMALL
GASTEIGER

@<TRIPOS>ATOM
      1 O           3.2360    2.3877    0.0000 O.3     1  UNL1       -0.3472
      2 O           2.5452    1.2320    0.0000 O.3     1  UNL1       -0.3666
      3 O           2.0000   -0.2251    0.0000 O.2     1  UNL1       -0.2755
      4 N           7.1357   -0.1244    0.0000 N.3     1  UNL1       -0.2946
      5 N           3.6948   -0.5823    0.0000 N.am    1  UNL1       -0.2670
      6 C           5.2979   -0.4152    0.0000 C.3     1  UNL1        0.0336
      7 C           6.1639    0.0848    0.0000 C.3     1  UNL1        0.0227
      8 C           4.4318    0.0848    0.0000 C.3     1  UNL1        0.0502
      9 C           4.4318    1.0848    0.0000 C.3     1  UNL1        0.0364
     10 C           5.2979    1.5848    0.0000 C.3     1  UNL1       -0.0080
     11 C           6.1639    1.0848    0.0000 C.3     1  UNL1       -0.0294
     12 C           5.9650   -1.1522    0.0000 C.3     1  UNL1       -0.0273
     13 C           7.0558   -0.9301    0.0000 C.3     1  UNL1        0.0004
     14 C           5.0887   -1.3870    0.0000 C.ar    1  UNL1       -0.0165
     15 C           5.4375    2.5556    0.0000 C.2     1  UNL1       -0.0537
     16 C           7.0603    1.7058    0.0000 C.3     1  UNL1        0.0207
     17 C           4.0999   -1.4900    0.0000 C.ar    1  UNL1        0.0404
     18 C           3.5213    1.4493    0.0000 C.3     1  UNL1        0.1616
     19 C           5.7094   -2.2158    0.0000 C.ar    1  UNL1       -0.0562
     20 C           4.7675    3.2719    0.0000 C.2     1  UNL1       -0.0579
     21 C           2.7443   -0.8929    0.0000 C.2     1  UNL1        0.2170
     22 C           3.6634   -2.4290    0.0000 C.ar    1  UNL1       -0.0400
     23 C           3.7896    3.1973    0.0000 C.3     1  UNL1        0.0691
     24 C           5.2947   -3.1646    0.0000 C.ar    1  UNL1       -0.0614
     25 C           4.2648   -3.2719    0.0000 C.ar    1  UNL1       -0.0600
     26 C           2.5380   -1.8714    0.0000 C.3     1  UNL1        0.0127
     27 H           6.9000    0.5098    0.0000 H       1  UNL1        0.0472
     28 H           3.5818    0.0848    0.0000 H       1  UNL1        0.0518
     29 H           3.6957    0.6598    0.0000 H       1  UNL1        0.0374
     30 H           6.0340    2.0098    0.0000 H       1  UNL1        0.0351
     31 H           6.7745    0.9772    0.0000 H       1  UNL1        0.0286
     32 H           6.3759    1.6674    0.0000 H       1  UNL1        0.0286
     33 H           5.4388   -1.4802    0.0000 H       1  UNL1        0.0287
     34 H           6.1944   -1.7282    0.0000 H       1  UNL1        0.0287
     35 H           7.1182   -1.5469    0.0000 H       1  UNL1        0.0427
     36 H           7.6758   -0.9295    0.0000 H       1  UNL1        0.0427
     37 H           7.6748    1.6234    0.0000 H       1  UNL1        0.0473
     38 H           7.2481    2.2967    0.0000 H       1  UNL1        0.0473
     39 H           3.4712    0.8313    0.0000 H       1  UNL1        0.0911
     40 H           6.3253   -2.1444    0.0000 H       1  UNL1        0.0621
     41 H           4.9925    3.8496    0.0000 H       1  UNL1        0.0595
     42 H           3.0461   -2.4861    0.0000 H       1  UNL1        0.0636
     43 H           3.8817    3.8104    0.0000 H       1  UNL1        0.0605
     44 H           3.2125    3.4241    0.0000 H       1  UNL1        0.0605
     45 H           2.1259    1.6888    0.0000 H       1  UNL1        0.2125
     46 H           5.6607   -3.6650    0.0000 H       1  UNL1        0.0618
     47 H           4.0100   -3.8371    0.0000 H       1  UNL1        0.0618
     48 H           1.9314   -1.7435    0.0000 H       1  UNL1        0.0323
     49 H           2.4101   -2.4780    0.0000 H       1  UNL1        0.0323
     50 H           3.1447   -1.9993    0.0000 H       1  UNL1        0.0323
@<TRIPOS>BOND
     1     1    18    1
     2     1    23    1
     3    18     2    1
     4     2    45    1
     5     3    21    2
     6     4     7    1
     7     4    13    1
     8     4    16    1
     9     5     8    1
    10     5    17    1
    11     5    21   am
    12     6     7    1
    13     6     8    1
    14     6    12    1
    15     6    14    1
    16     7    11    1
    17     7    27    1
    18     8     9    1
    19     8    28    1
    20     9    10    1
    21     9    18    1
    22     9    29    1
    23    10    11    1
    24    10    15    1
    25    10    30    1
    26    11    31    1
    27    11    32    1
    28    12    13    1
    29    12    33    1
    30    12    34    1
    31    13    35    1
    32    13    36    1
    33    14    17   ar
    34    14    19   ar
    35    15    16    1
    36    15    20    2
    37    16    37    1
    38    16    38    1
    39    17    22   ar
    40    18    39    1
    41    19    24   ar
    42    19    40    1
    43    20    23    1
    44    20    41    1
    45    21    26    1
    46    22    25   ar
    47    22    42    1
    48    23    43    1
    49    23    44    1
    50    24    25   ar
    51    24    46    1
    52    25    47    1
    53    26    48    1
    54    26    49    1
    55    26    50    1
