@<TRIPOS>MOLECULE
IMPHY010209
 82 88 0 0 0
SMALL
GASTEIGER

@<TRIPOS>ATOM
      1 O           7.1982    0.8568    0.0000 O.3     1  UNL1       -0.4482
      2 O           6.6738    3.2972    0.0000 O.3     1  UNL1       -0.4914
      3 O           8.9311    3.8578    0.0000 O.3     1  UNL1       -0.4913
      4 O           7.7312    3.3003    0.0000 O.3     1  UNL1       -0.5009
      5 O           5.0588   -3.0478    0.0000 O.3     1  UNL1       -0.4524
      6 O           3.3259   -4.0478    0.0000 O.3     1  UNL1       -0.5033
      7 N           9.7975   -0.6439    0.0000 N.3     1  UNL1       -0.2977
      8 N           2.8660    1.3571    0.0000 N.3     1  UNL1       -0.2978
      9 C           8.9311   -0.1436    0.0000 C.3     1  UNL1        0.0432
     10 C           3.7325    0.8568    0.0000 C.3     1  UNL1        0.0397
     11 C           8.9311    0.8568    0.0000 C.ar    1  UNL1        0.0193
     12 C           4.5989    1.3571    0.0000 C.ar    1  UNL1       -0.0231
     13 C          10.6640   -0.1436    0.0000 C.3     1  UNL1        0.0032
     14 C           9.7975    1.3571    0.0000 C.ar    1  UNL1       -0.0343
     15 C          10.6640    0.8568    0.0000 C.3     1  UNL1       -0.0143
     16 C           2.8660    2.3575    0.0000 C.3     1  UNL1        0.0032
     17 C           4.5989    2.3575    0.0000 C.ar    1  UNL1       -0.0378
     18 C           8.5245   -1.0468    0.0000 C.3     1  UNL1       -0.0078
     19 C           3.7325    2.8578    0.0000 C.3     1  UNL1       -0.0144
     20 C           3.3259   -0.0464    0.0000 C.3     1  UNL1       -0.0078
     21 C           8.0646    1.3571    0.0000 C.ar    1  UNL1        0.1784
     22 C           5.4653    0.8568    0.0000 C.ar    1  UNL1       -0.0107
     23 C           6.3318    1.3571    0.0000 C.ar    1  UNL1        0.1703
     24 C           9.7975   -1.6439    0.0000 C.3     1  UNL1       -0.0122
     25 C           9.7975    2.3575    0.0000 C.ar    1  UNL1       -0.0125
     26 C           5.4653    2.8578    0.0000 C.ar    1  UNL1       -0.0128
     27 C           2.0000    0.8571    0.0000 C.3     1  UNL1       -0.0122
     28 C           7.6581   -1.5471    0.0000 C.ar    1  UNL1       -0.0453
     29 C           3.3259   -1.0468    0.0000 C.ar    1  UNL1       -0.0419
     30 C           8.0646    2.3575    0.0000 C.ar    1  UNL1        0.2020
     31 C           6.3318    2.3575    0.0000 C.ar    1  UNL1        0.1624
     32 C           8.9311    2.8578    0.0000 C.ar    1  UNL1        0.1653
     33 C           6.7917   -1.0468    0.0000 C.ar    1  UNL1       -0.0550
     34 C           7.6581   -2.5476    0.0000 C.ar    1  UNL1       -0.0550
     35 C           4.1924   -1.5471    0.0000 C.ar    1  UNL1       -0.0124
     36 C           2.4595   -1.5471    0.0000 C.ar    1  UNL1       -0.0548
     37 C           4.1924   -2.5476    0.0000 C.ar    1  UNL1        0.1698
     38 C           5.9252   -1.5471    0.0000 C.ar    1  UNL1       -0.0191
     39 C           6.7917   -3.0478    0.0000 C.ar    1  UNL1       -0.0191
     40 C           5.9252   -2.5476    0.0000 C.ar    1  UNL1        0.1286
     41 C           2.4595   -2.5476    0.0000 C.ar    1  UNL1       -0.0162
     42 C           3.3259   -3.0478    0.0000 C.ar    1  UNL1        0.1591
     43 C           6.0310    4.0633    0.0000 C.3     1  UNL1        0.0790
     44 C           9.7971    4.3578    0.0000 C.3     1  UNL1        0.0790
     45 H           9.1215   -0.7337    0.0000 H       1  UNL1        0.0516
     46 H           3.1424    0.6665    0.0000 H       1  UNL1        0.0515
     47 H          10.8760   -0.7262    0.0000 H       1  UNL1        0.0430
     48 H          11.2745   -0.0360    0.0000 H       1  UNL1        0.0430
     49 H          11.2745    0.7492    0.0000 H       1  UNL1        0.0326
     50 H          10.8760    1.4394    0.0000 H       1  UNL1        0.0326
     51 H           2.6540    2.9402    0.0000 H       1  UNL1        0.0430
     52 H           2.2554    2.2499    0.0000 H       1  UNL1        0.0430
     53 H           8.6526   -1.6535    0.0000 H       1  UNL1        0.0332
     54 H           8.0646   -0.6310    0.0000 H       1  UNL1        0.0332
     55 H           4.1310    3.3327    0.0000 H       1  UNL1        0.0326
     56 H           3.3339    3.3327    0.0000 H       1  UNL1        0.0326
     57 H           2.8964    0.4008    0.0000 H       1  UNL1        0.0332
     58 H           3.9321   -0.1765    0.0000 H       1  UNL1        0.0332
     59 H           5.4653    0.2368    0.0000 H       1  UNL1        0.0659
     60 H           9.1775   -1.6439    0.0000 H       1  UNL1        0.0391
     61 H           9.7975   -2.2639    0.0000 H       1  UNL1        0.0391
     62 H          10.4175   -1.6439    0.0000 H       1  UNL1        0.0391
     63 H          10.3345    2.6676    0.0000 H       1  UNL1        0.0658
     64 H           5.4653    3.4778    0.0000 H       1  UNL1        0.0658
     65 H           1.6900    1.3940    0.0000 H       1  UNL1        0.0391
     66 H           1.4631    0.5471    0.0000 H       1  UNL1        0.0391
     67 H           2.3100    0.3201    0.0000 H       1  UNL1        0.0391
     68 H           6.7917   -0.4268    0.0000 H       1  UNL1        0.0621
     69 H           8.1950   -2.8576    0.0000 H       1  UNL1        0.0621
     70 H           4.7293   -1.2371    0.0000 H       1  UNL1        0.0658
     71 H           1.9225   -1.2371    0.0000 H       1  UNL1        0.0621
     72 H           5.3883   -1.2371    0.0000 H       1  UNL1        0.0654
     73 H           6.7917   -3.6678    0.0000 H       1  UNL1        0.0654
     74 H           8.1340    3.7716    0.0000 H       1  UNL1        0.2924
     75 H           1.9225   -2.8576    0.0000 H       1  UNL1        0.0655
     76 H           6.5060    4.4618    0.0000 H       1  UNL1        0.0660
     77 H           5.6325    4.5382    0.0000 H       1  UNL1        0.0660
     78 H           5.5561    3.6648    0.0000 H       1  UNL1        0.0660
     79 H          10.1071    3.8209    0.0000 H       1  UNL1        0.0660
     80 H          10.3340    4.6678    0.0000 H       1  UNL1        0.0660
     81 H           9.4871    4.8947    0.0000 H       1  UNL1        0.0660
     82 H           2.7890   -4.3578    0.0000 H       1  UNL1        0.2923
@<TRIPOS>BOND
     1     1    21    1
     2     1    23    1
     3     2    31    1
     4     2    43    1
     5     3    32    1
     6     3    44    1
     7     4    30    1
     8     4    74    1
     9     5    37    1
    10     5    40    1
    11     6    42    1
    12     6    82    1
    13     7     9    1
    14     7    13    1
    15     7    24    1
    16     8    10    1
    17     8    16    1
    18     8    27    1
    19     9    11    1
    20     9    18    1
    21     9    45    1
    22    10    12    1
    23    10    20    1
    24    10    46    1
    25    11    14   ar
    26    11    21   ar
    27    12    17   ar
    28    12    22   ar
    29    13    15    1
    30    13    47    1
    31    13    48    1
    32    14    15    1
    33    14    25   ar
    34    15    49    1
    35    15    50    1
    36    16    19    1
    37    16    51    1
    38    16    52    1
    39    17    19    1
    40    17    26   ar
    41    18    28    1
    42    18    53    1
    43    18    54    1
    44    19    55    1
    45    19    56    1
    46    20    29    1
    47    20    57    1
    48    20    58    1
    49    21    30   ar
    50    22    23   ar
    51    22    59    1
    52    23    31   ar
    53    24    60    1
    54    24    61    1
    55    24    62    1
    56    25    32   ar
    57    25    63    1
    58    26    31   ar
    59    26    64    1
    60    27    65    1
    61    27    66    1
    62    27    67    1
    63    28    33   ar
    64    28    34   ar
    65    29    35   ar
    66    29    36   ar
    67    30    32   ar
    68    33    38   ar
    69    33    68    1
    70    34    39   ar
    71    34    69    1
    72    35    37   ar
    73    35    70    1
    74    36    41   ar
    75    36    71    1
    76    37    42   ar
    77    38    40   ar
    78    38    72    1
    79    39    40   ar
    80    39    73    1
    81    41    42   ar
    82    41    75    1
    83    43    76    1
    84    43    77    1
    85    43    78    1
    86    44    79    1
    87    44    80    1
    88    44    81    1
