@<TRIPOS>MOLECULE
IMPHY007441
 60 62 0 0 0
SMALL
GASTEIGER

@<TRIPOS>ATOM
      1 O           5.5220    1.5556    0.0000 O.3     1  UNL1       -0.4591
      2 O           2.9239    1.0556    0.0000 O.3     1  UNL1       -0.4581
      3 O           4.8668   -1.6234    0.0000 O.3     1  UNL1       -0.4538
      4 O           3.0035   -1.4302    0.0000 O.3     1  UNL1       -0.3746
      5 O           6.9662    0.4680    0.0000 O.2     1  UNL1       -0.2504
      6 O           2.0000   -0.3271    0.0000 O.2     1  UNL1       -0.2474
      7 O           6.5500   -1.2150    0.0000 O.2     1  UNL1       -0.2505
      8 N           4.8651    4.0274    0.0000 N.3     1  UNL1       -0.2886
      9 C           4.6559    3.0556    0.0000 C.3     1  UNL1        0.0723
     10 C           5.5220    2.5556    0.0000 C.3     1  UNL1        0.1235
     11 C           6.2590    3.2226    0.0000 C.3     1  UNL1       -0.0010
     12 C           5.8539    4.1304    0.0000 C.3     1  UNL1        0.0033
     13 C           3.7899    2.5556    0.0000 C.2     1  UNL1       -0.0148
     14 C           5.3695    3.1545    0.0000 C.3     1  UNL1        0.0182
     15 C           4.6310   -0.6515    0.0000 C.3     1  UNL1        0.1618
     16 C           4.7748    2.3404    0.0000 C.2     1  UNL1       -0.0660
     17 C           5.1310    0.2145    0.0000 C.3     1  UNL1        0.0963
     18 C           3.6310   -0.6515    0.0000 C.3     1  UNL1        0.1997
     19 C           3.7899    1.5556    0.0000 C.3     1  UNL1        0.1153
     20 C           5.9970    0.7145    0.0000 C.2     1  UNL1        0.3142
     21 C           5.6028   -0.8873    0.0000 C.3     1  UNL1       -0.0207
     22 C           2.9239    0.0556    0.0000 C.2     1  UNL1        0.3432
     23 C           4.4239    0.9216    0.0000 C.3     1  UNL1       -0.0484
     24 C           3.8707   -1.6224    0.0000 C.3     1  UNL1       -0.0216
     25 C           5.8262   -1.9051    0.0000 C.2     1  UNL1        0.3106
     26 C           6.0620   -2.8769    0.0000 C.3     1  UNL1        0.0534
     27 C           7.0215   -3.1586    0.0000 C.3     1  UNL1       -0.0432
     28 C           5.3383   -3.5670    0.0000 C.3     1  UNL1       -0.0523
     29 C           7.2572   -4.1304    0.0000 C.3     1  UNL1       -0.0645
     30 H           4.1548    3.4206    0.0000 H       1  UNL1        0.0547
     31 H           6.0887    2.3041    0.0000 H       1  UNL1        0.0753
     32 H           6.6244    2.7218    0.0000 H       1  UNL1        0.0314
     33 H           6.7955    3.5334    0.0000 H       1  UNL1        0.0314
     34 H           6.4435    4.3222    0.0000 H       1  UNL1        0.0428
     35 H           5.7251    4.7369    0.0000 H       1  UNL1        0.0428
     36 H           5.8148    2.7231    0.0000 H       1  UNL1        0.0470
     37 H           5.8583    3.5359    0.0000 H       1  UNL1        0.0470
     38 H           4.9946    1.7607    0.0000 H       1  UNL1        0.0586
     39 H           4.5163    0.1336    0.0000 H       1  UNL1        0.0451
     40 H           4.0020    0.9730    0.0000 H       1  UNL1        0.0746
     41 H           4.4005    1.6632    0.0000 H       1  UNL1        0.0746
     42 H           5.4566   -1.4898    0.0000 H       1  UNL1        0.0269
     43 H           6.2053   -1.0335    0.0000 H       1  UNL1        0.0269
     44 H           5.7490   -0.2848    0.0000 H       1  UNL1        0.0269
     45 H           4.8623    1.3600    0.0000 H       1  UNL1        0.0239
     46 H           3.9855    1.3600    0.0000 H       1  UNL1        0.0239
     47 H           3.9855    0.4832    0.0000 H       1  UNL1        0.0239
     48 H           3.2688   -1.7710    0.0000 H       1  UNL1        0.0264
     49 H           4.0193   -2.2243    0.0000 H       1  UNL1        0.0264
     50 H           4.4726   -1.4738    0.0000 H       1  UNL1        0.0264
     51 H           2.3909   -1.3346    0.0000 H       1  UNL1        0.2110
     52 H           5.4671   -2.7022    0.0000 H       1  UNL1        0.0410
     53 H           7.6402   -3.1193    0.0000 H       1  UNL1        0.0270
     54 H           7.0902   -2.5424    0.0000 H       1  UNL1        0.0270
     55 H           4.9104   -3.1183    0.0000 H       1  UNL1        0.0238
     56 H           4.8896   -3.9948    0.0000 H       1  UNL1        0.0238
     57 H           5.7661   -4.0157    0.0000 H       1  UNL1        0.0238
     58 H           6.6547   -4.2766    0.0000 H       1  UNL1        0.0230
     59 H           7.4034   -4.7330    0.0000 H       1  UNL1        0.0230
     60 H           7.8598   -3.9843    0.0000 H       1  UNL1        0.0230
@<TRIPOS>BOND
     1     1    10    1
     2     1    20    1
     3     2    19    1
     4     2    22    1
     5     3    15    1
     6     3    25    1
     7     4    18    1
     8     4    51    1
     9     5    20    2
    10     6    22    2
    11     7    25    2
    12     8     9    1
    13     8    12    1
    14     8    14    1
    15     9    10    1
    16     9    13    1
    17     9    30    1
    18    10    11    1
    19    10    31    1
    20    11    12    1
    21    11    32    1
    22    11    33    1
    23    12    34    1
    24    12    35    1
    25    13    16    2
    26    13    19    1
    27    14    16    1
    28    14    36    1
    29    14    37    1
    30    15    17    1
    31    15    18    1
    32    15    21    1
    33    16    38    1
    34    17    20    1
    35    17    23    1
    36    17    39    1
    37    18    22    1
    38    18    24    1
    39    19    40    1
    40    19    41    1
    41    21    42    1
    42    21    43    1
    43    21    44    1
    44    23    45    1
    45    23    46    1
    46    23    47    1
    47    24    48    1
    48    24    49    1
    49    24    50    1
    50    25    26    1
    51    26    27    1
    52    26    28    1
    53    26    52    1
    54    27    29    1
    55    27    53    1
    56    27    54    1
    57    28    55    1
    58    28    56    1
    59    28    57    1
    60    29    58    1
    61    29    59    1
    62    29    60    1
