@<TRIPOS>MOLECULE
IMPHY008761
 71 76 0 0 0
SMALL
GASTEIGER

@<TRIPOS>ATOM
      1 O           5.5954   -2.2515    0.0000 O.3     1  UNL1       -0.3447
      2 O           8.3948   -1.0167    0.0000 O.3     1  UNL1       -0.3877
      3 O           3.9300   -1.1704    0.0000 O.3     1  UNL1       -0.3480
      4 O          12.0027    3.1277    0.0000 O.2     1  UNL1       -0.2927
      5 C           6.6628   -0.0167    0.0000 C.3     1  UNL1        0.0027
      6 C           7.5288   -0.5167    0.0000 C.3     1  UNL1        0.0772
      7 C           5.9258   -0.6838    0.0000 C.3     1  UNL1        0.0009
      8 C           8.3948   -0.0167    0.0000 C.3     1  UNL1       -0.0076
      9 C           6.3309   -1.5916    0.0000 C.3     1  UNL1        0.0684
     10 C           8.3948    0.9833    0.0000 C.3     1  UNL1       -0.0264
     11 C           7.3196   -1.4885    0.0000 C.3     1  UNL1        0.0036
     12 C           6.6628    0.9833    0.0000 C.3     1  UNL1       -0.0444
     13 C           4.9434   -0.7905    0.0000 C.3     1  UNL1        0.0161
     14 C           7.5288    1.4833    0.0000 C.3     1  UNL1       -0.0485
     15 C           9.2888    1.5180    0.0000 C.3     1  UNL1       -0.0071
     16 C           4.7396   -1.7574    0.0000 C.3     1  UNL1        0.1732
     17 C           9.2888   -0.5514    0.0000 C.3     1  UNL1       -0.0436
     18 C           5.7968    0.4833    0.0000 C.3     1  UNL1       -0.0566
     19 C          10.1949    1.0041    0.0000 C.2     1  UNL1       -0.0601
     20 C          10.1949   -0.0375    0.0000 C.3     1  UNL1       -0.0305
     21 C           4.2723   -0.0491    0.0000 C.3     1  UNL1       -0.0572
     22 C           9.2637    2.6027    0.0000 C.3     1  UNL1       -0.0366
     23 C           4.6359   -2.7520    0.0000 C.3     1  UNL1        0.0020
     24 C           8.4189    2.0113    0.0000 C.3     1  UNL1       -0.0556
     25 C           3.7227   -3.1596    0.0000 C.3     1  UNL1       -0.0435
     26 C          10.1949    3.1596    0.0000 C.3     1  UNL1        0.0107
     27 C          11.1386    1.5394    0.0000 C.2     1  UNL1       -0.0194
     28 C           3.0169   -1.5779    0.0000 C.3     1  UNL1        0.0535
     29 C           2.9132   -2.5725    0.0000 C.3     1  UNL1       -0.0201
     30 C          11.1386    2.6243    0.0000 C.2     1  UNL1        0.1561
     31 C           2.0000   -2.9800    0.0000 C.3     1  UNL1       -0.0603
     32 H           5.5777    0.0917    0.0000 H       1  UNL1        0.0336
     33 H           9.1342    0.4026    0.0000 H       1  UNL1        0.0332
     34 H           6.6756   -2.3685    0.0000 H       1  UNL1        0.0601
     35 H           9.1342    0.5640    0.0000 H       1  UNL1        0.0313
     36 H           7.3187   -2.1085    0.0000 H       1  UNL1        0.0318
     37 H           7.9361   -1.5546    0.0000 H       1  UNL1        0.0318
     38 H           6.4507    1.5659    0.0000 H       1  UNL1        0.0272
     39 H           6.0522    0.8756    0.0000 H       1  UNL1        0.0272
     40 H           4.3448   -0.9522    0.0000 H       1  UNL1        0.0354
     41 H           7.9274    1.9582    0.0000 H       1  UNL1        0.0268
     42 H           7.1303    1.9582    0.0000 H       1  UNL1        0.0268
     43 H           8.8842   -1.0212    0.0000 H       1  UNL1        0.0272
     44 H           9.6824   -1.0304    0.0000 H       1  UNL1        0.0272
     45 H           6.1068    1.0202    0.0000 H       1  UNL1        0.0236
     46 H           5.2598    0.7933    0.0000 H       1  UNL1        0.0236
     47 H           5.4868   -0.0536    0.0000 H       1  UNL1        0.0236
     48 H          10.4039   -0.6212    0.0000 H       1  UNL1        0.0310
     49 H          10.8057    0.0686    0.0000 H       1  UNL1        0.0310
     50 H           8.3948   -1.6367    0.0000 H       1  UNL1        0.2102
     51 H           4.7320    0.3670    0.0000 H       1  UNL1        0.0234
     52 H           3.8562    0.4106    0.0000 H       1  UNL1        0.0234
     53 H           3.8126   -0.4651    0.0000 H       1  UNL1        0.0234
     54 H           9.0412    3.1814    0.0000 H       1  UNL1        0.0278
     55 H           8.6555    2.4825    0.0000 H       1  UNL1        0.0278
     56 H           4.7864   -3.3535    0.0000 H       1  UNL1        0.0317
     57 H           5.2544   -2.7083    0.0000 H       1  UNL1        0.0317
     58 H           8.7248    2.5506    0.0000 H       1  UNL1        0.0238
     59 H           7.8796    2.3171    0.0000 H       1  UNL1        0.0238
     60 H           8.1131    1.4720    0.0000 H       1  UNL1        0.0238
     61 H           3.2771   -3.5906    0.0000 H       1  UNL1        0.0270
     62 H           4.0699   -3.6733    0.0000 H       1  UNL1        0.0270
     63 H          10.5885    3.6386    0.0000 H       1  UNL1        0.0345
     64 H           9.7903    3.6294    0.0000 H       1  UNL1        0.0345
     65 H          11.6744    1.2273    0.0000 H       1  UNL1        0.0652
     66 H           2.4113   -2.2085    0.0000 H       1  UNL1        0.0320
     67 H           2.8664   -0.9764    0.0000 H       1  UNL1        0.0563
     68 H           2.3984   -1.6217    0.0000 H       1  UNL1        0.0563
     69 H           1.7473   -2.4138    0.0000 H       1  UNL1        0.0233
     70 H           1.4338   -3.2327    0.0000 H       1  UNL1        0.0233
     71 H           2.2527   -3.5462    0.0000 H       1  UNL1        0.0233
@<TRIPOS>BOND
     1     1     9    1
     2    16     1    1
     3     6     2    1
     4     2    50    1
     5     3    16    1
     6     3    28    1
     7     4    30    2
     8     5     6    1
     9     5     7    1
    10     5    12    1
    11     5    18    1
    12     6     8    1
    13     6    11    1
    14     7     9    1
    15     7    13    1
    16     7    32    1
    17     8    10    1
    18     8    17    1
    19     8    33    1
    20     9    11    1
    21     9    34    1
    22    10    14    1
    23    10    15    1
    24    10    35    1
    25    11    36    1
    26    11    37    1
    27    12    14    1
    28    12    38    1
    29    12    39    1
    30    13    16    1
    31    13    21    1
    32    13    40    1
    33    14    41    1
    34    14    42    1
    35    15    19    1
    36    15    22    1
    37    15    24    1
    38    16    23    1
    39    17    20    1
    40    17    43    1
    41    17    44    1
    42    18    45    1
    43    18    46    1
    44    18    47    1
    45    19    20    1
    46    19    27    2
    47    20    48    1
    48    20    49    1
    49    21    51    1
    50    21    52    1
    51    21    53    1
    52    22    26    1
    53    22    54    1
    54    22    55    1
    55    23    25    1
    56    23    56    1
    57    23    57    1
    58    24    58    1
    59    24    59    1
    60    24    60    1
    61    25    29    1
    62    25    61    1
    63    25    62    1
    64    26    30    1
    65    26    63    1
    66    26    64    1
    67    27    30    1
    68    27    65    1
    69    28    29    1
    70    28    67    1
    71    28    68    1
    72    29    31    1
    73    29    66    1
    74    31    69    1
    75    31    70    1
    76    31    71    1
