@<TRIPOS>MOLECULE
IMPHY015294
 38 38 0 0 0
SMALL
GASTEIGER

@<TRIPOS>ATOM
      1 O           2.5369    0.2500    0.0000 O.3     1  UNL1       -0.5064
      2 O           6.0010    0.2500    0.0000 O.3     1  UNL1       -0.5064
      3 C           5.1350    1.7500    0.0000 C.3     1  UNL1       -0.0488
      4 C           4.2690    1.2500    0.0000 C.3     1  UNL1       -0.0207
      5 C           5.1350    2.7500    0.0000 C.3     1  UNL1       -0.0530
      6 C           4.2690    0.2500    0.0000 C.ar    1  UNL1        0.0354
      7 C           6.0010    3.2500    0.0000 C.3     1  UNL1       -0.0559
      8 C           4.2690   -1.7500    0.0000 C.ar    1  UNL1       -0.0405
      9 C           4.2690   -2.7500    0.0000 C.3     1  UNL1       -0.0277
     10 C           3.4030   -0.2500    0.0000 C.ar    1  UNL1        0.1237
     11 C           5.1350   -0.2500    0.0000 C.ar    1  UNL1        0.1237
     12 C           3.4030   -1.2500    0.0000 C.ar    1  UNL1       -0.0165
     13 C           5.1350   -1.2500    0.0000 C.ar    1  UNL1       -0.0165
     14 C           3.4030   -3.2500    0.0000 C.3     1  UNL1       -0.0519
     15 C           6.0010    4.2500    0.0000 C.3     1  UNL1       -0.0653
     16 C           3.4030   -4.2500    0.0000 C.3     1  UNL1       -0.0650
     17 H           5.3471    1.1674    0.0000 H       1  UNL1        0.0268
     18 H           5.7456    1.8577    0.0000 H       1  UNL1        0.0268
     19 H           4.0569    1.8326    0.0000 H       1  UNL1        0.0315
     20 H           3.6584    1.1423    0.0000 H       1  UNL1        0.0315
     21 H           4.9230    3.3326    0.0000 H       1  UNL1        0.0265
     22 H           4.5244    2.6423    0.0000 H       1  UNL1        0.0265
     23 H           6.2131    2.6674    0.0000 H       1  UNL1        0.0263
     24 H           6.6116    3.3577    0.0000 H       1  UNL1        0.0263
     25 H           4.4810   -3.3326    0.0000 H       1  UNL1        0.0313
     26 H           4.8796   -2.6423    0.0000 H       1  UNL1        0.0313
     27 H           2.8660   -1.5600    0.0000 H       1  UNL1        0.0657
     28 H           5.6720   -1.5600    0.0000 H       1  UNL1        0.0657
     29 H           3.1909   -2.6674    0.0000 H       1  UNL1        0.0266
     30 H           2.7924   -3.3577    0.0000 H       1  UNL1        0.0266
     31 H           6.6210    4.2500    0.0000 H       1  UNL1        0.0230
     32 H           6.0010    4.8700    0.0000 H       1  UNL1        0.0230
     33 H           5.3810    4.2500    0.0000 H       1  UNL1        0.0230
     34 H           2.7830   -4.2500    0.0000 H       1  UNL1        0.0230
     35 H           3.4030   -4.8700    0.0000 H       1  UNL1        0.0230
     36 H           4.0230   -4.2500    0.0000 H       1  UNL1        0.0230
     37 H           2.0000   -0.0600    0.0000 H       1  UNL1        0.2921
     38 H           6.5380   -0.0600    0.0000 H       1  UNL1        0.2921
@<TRIPOS>BOND
     1     1    10    1
     2     1    37    1
     3     2    11    1
     4     2    38    1
     5     3     4    1
     6     3     5    1
     7     3    17    1
     8     3    18    1
     9     4     6    1
    10     4    19    1
    11     4    20    1
    12     5     7    1
    13     5    21    1
    14     5    22    1
    15     6    10   ar
    16     6    11   ar
    17     7    15    1
    18     7    23    1
    19     7    24    1
    20     8     9    1
    21     8    12   ar
    22     8    13   ar
    23     9    14    1
    24     9    25    1
    25     9    26    1
    26    10    12   ar
    27    11    13   ar
    28    12    27    1
    29    13    28    1
    30    14    16    1
    31    14    29    1
    32    14    30    1
    33    15    31    1
    34    15    32    1
    35    15    33    1
    36    16    34    1
    37    16    35    1
    38    16    36    1
