@<TRIPOS>MOLECULE
IMPHY005625
 139 147 0 0 0
SMALL
GASTEIGER

@<TRIPOS>ATOM
      1 O           2.5357    5.1646    0.0000 O.3     1  UNL1       -0.3877
      2 O           4.3009   -0.0390    0.0000 O.3     1  UNL1       -0.3480
      3 O           5.3981    9.3490    0.0000 O.3     1  UNL1       -0.4571
      4 O           6.0329   -0.0390    0.0000 O.3     1  UNL1       -0.3456
      5 O           7.1184    8.8841    0.0000 O.2     1  UNL1       -0.2456
      6 O           6.0329   -3.0390    0.0000 O.3     1  UNL1       -0.3452
      7 O           7.7650   -2.0390    0.0000 O.3     1  UNL1       -0.3429
      8 O           7.7650   -3.0390    0.0000 O.3     1  UNL1       -0.3456
      9 O           8.6310   -0.5390    0.0000 O.3     1  UNL1       -0.3456
     10 O           7.7650   -6.0390    0.0000 O.3     1  UNL1       -0.3426
     11 O           9.4970   -5.0390    0.0000 O.3     1  UNL1       -0.3867
     12 O          11.2291   -2.0390    0.0000 O.3     1  UNL1       -0.3890
     13 O          11.2291   -0.0390    0.0000 O.3     1  UNL1       -0.3867
     14 O           6.0329   -6.0390    0.0000 O.3     1  UNL1       -0.3405
     15 O           7.7650   -8.0390    0.0000 O.3     1  UNL1       -0.3841
     16 O           6.0329   -9.0390    0.0000 O.3     1  UNL1       -0.3864
     17 O           4.3009   -8.0390    0.0000 O.3     1  UNL1       -0.3865
     18 O           3.4349   -6.5390    0.0000 O.3     1  UNL1       -0.3924
     19 C           3.4037    5.6612    0.0000 C.3     1  UNL1        0.0751
     20 C           3.3998    4.6612    0.0000 C.3     1  UNL1       -0.0083
     21 C           4.2639    4.1579    0.0000 C.3     1  UNL1       -0.0299
     22 C           4.2716    6.1579    0.0000 C.3     1  UNL1        0.0036
     23 C           4.2760    3.1164    0.0000 C.3     1  UNL1       -0.0259
     24 C           3.3759    2.5921    0.0000 C.3     1  UNL1       -0.0330
     25 C           5.1319    4.6546    0.0000 C.3     1  UNL1       -0.0488
     26 C           5.1357    5.6546    0.0000 C.3     1  UNL1       -0.0442
     27 C           4.0662    7.1305    0.0000 C.3     1  UNL1       -0.0081
     28 C           2.4879    4.1579    0.0000 C.3     1  UNL1       -0.0470
     29 C           2.6692    6.3312    0.0000 C.3     1  UNL1       -0.0226
     30 C           2.4758    3.1164    0.0000 C.3     1  UNL1       -0.0493
     31 C           3.0779    7.2374    0.0000 C.3     1  UNL1       -0.0432
     32 C           5.2259    2.5921    0.0000 C.3     1  UNL1       -0.0448
     33 C           3.3634    1.5071    0.0000 C.3     1  UNL1       -0.0232
     34 C           5.1396    6.6546    0.0000 C.3     1  UNL1       -0.0564
     35 C           5.1401    3.6197    0.0000 C.3     1  UNL1       -0.0590
     36 C           5.2384    1.5071    0.0000 C.3     1  UNL1       -0.0260
     37 C           4.3009    0.9610    0.0000 C.3     1  UNL1        0.0620
     38 C           4.7369    7.8722    0.0000 C.2     1  UNL1       -0.0222
     39 C           4.5310    8.8508    0.0000 C.3     1  UNL1        0.1147
     40 C           5.7312    7.7656    0.0000 C.2     1  UNL1        0.0252
     41 C           5.1669   -0.5390    0.0000 C.3     1  UNL1        0.1624
     42 C           6.1398    8.6783    0.0000 C.2     1  UNL1        0.3323
     43 C           5.1669   -1.5390    0.0000 C.3     1  UNL1        0.0274
     44 C           6.0329   -2.0390    0.0000 C.3     1  UNL1        0.0948
     45 C           6.8990   -0.5390    0.0000 C.3     1  UNL1        0.0875
     46 C           6.8990   -1.5390    0.0000 C.3     1  UNL1        0.1138
     47 C           7.7650   -0.0390    0.0000 C.3     1  UNL1       -0.0361
     48 C           6.8990   -3.5390    0.0000 C.3     1  UNL1        0.1625
     49 C           8.6310   -1.5390    0.0000 C.3     1  UNL1        0.1626
     50 C           6.8990   -4.5390    0.0000 C.3     1  UNL1        0.0273
     51 C           9.4970   -2.0390    0.0000 C.3     1  UNL1        0.0270
     52 C           7.7650   -5.0390    0.0000 C.3     1  UNL1        0.0946
     53 C           8.6310   -3.5390    0.0000 C.3     1  UNL1        0.0871
     54 C           8.6310   -4.5390    0.0000 C.3     1  UNL1        0.1074
     55 C          10.3631   -1.5390    0.0000 C.3     1  UNL1        0.0881
     56 C           9.4970   -0.0390    0.0000 C.3     1  UNL1        0.0871
     57 C          10.3631   -0.5390    0.0000 C.3     1  UNL1        0.1070
     58 C           9.4970   -3.0390    0.0000 C.3     1  UNL1       -0.0361
     59 C           9.4970    0.9610    0.0000 C.3     1  UNL1       -0.0361
     60 C           6.8990   -6.5390    0.0000 C.3     1  UNL1        0.1883
     61 C           6.8990   -7.5390    0.0000 C.3     1  UNL1        0.1341
     62 C           6.0329   -8.0390    0.0000 C.3     1  UNL1        0.1141
     63 C           5.1669   -6.5390    0.0000 C.3     1  UNL1        0.1130
     64 C           5.1669   -7.5390    0.0000 C.3     1  UNL1        0.1119
     65 C           4.3009   -6.0390    0.0000 C.3     1  UNL1        0.0730
     66 H           4.1376    5.0834    0.0000 H       1  UNL1        0.0331
     67 H           5.0017    3.7358    0.0000 H       1  UNL1        0.0310
     68 H           2.6365    2.1728    0.0000 H       1  UNL1        0.0307
     69 H           5.3417    4.0711    0.0000 H       1  UNL1        0.0268
     70 H           5.7429    4.7599    0.0000 H       1  UNL1        0.0268
     71 H           5.7459    5.5446    0.0000 H       1  UNL1        0.0272
     72 H           5.3500    6.2364    0.0000 H       1  UNL1        0.0272
     73 H           3.8455    7.7099    0.0000 H       1  UNL1        0.0353
     74 H           2.2856    4.7440    0.0000 H       1  UNL1        0.0269
     75 H           1.8758    4.0589    0.0000 H       1  UNL1        0.0269
     76 H           2.1340    6.6440    0.0000 H       1  UNL1        0.0293
     77 H           2.3019    5.8317    0.0000 H       1  UNL1        0.0293
     78 H           1.8662    3.2295    0.0000 H       1  UNL1        0.0268
     79 H           2.2600    2.5351    0.0000 H       1  UNL1        0.0268
     80 H           3.2089    7.8434    0.0000 H       1  UNL1        0.0272
     81 H           2.4890    7.4314    0.0000 H       1  UNL1        0.0272
     82 H           5.8379    2.4930    0.0000 H       1  UNL1        0.0271
     83 H           5.4282    3.1781    0.0000 H       1  UNL1        0.0271
     84 H           2.7538    1.6203    0.0000 H       1  UNL1        0.0293
     85 H           3.1476    0.9259    0.0000 H       1  UNL1        0.0293
     86 H           5.4475    6.1164    0.0000 H       1  UNL1        0.0236
     87 H           5.6777    6.9625    0.0000 H       1  UNL1        0.0236
     88 H           4.8316    7.1927    0.0000 H       1  UNL1        0.0236
     89 H           5.4521    3.0840    0.0000 H       1  UNL1        0.0235
     90 H           5.6758    3.9318    0.0000 H       1  UNL1        0.0235
     91 H           4.8280    4.1554    0.0000 H       1  UNL1        0.0235
     92 H           5.4542    0.9259    0.0000 H       1  UNL1        0.0290
     93 H           5.8480    1.6203    0.0000 H       1  UNL1        0.0290
     94 H           4.8384    0.6521    0.0000 H       1  UNL1        0.0597
     95 H           2.0000    5.4766    0.0000 H       1  UNL1        0.2102
     96 H           4.2801    9.4178    0.0000 H       1  UNL1        0.0746
     97 H           3.9410    8.6605    0.0000 H       1  UNL1        0.0746
     98 H           6.0400    7.2280    0.0000 H       1  UNL1        0.0689
     99 H           5.1669    0.0810    0.0000 H       1  UNL1        0.0910
    100 H           4.5563   -1.4313    0.0000 H       1  UNL1        0.0340
    101 H           4.9549   -2.1216    0.0000 H       1  UNL1        0.0340
    102 H           6.5699   -2.3490    0.0000 H       1  UNL1        0.0625
    103 H           6.8990    0.0810    0.0000 H       1  UNL1        0.0621
    104 H           7.4359   -1.2290    0.0000 H       1  UNL1        0.0649
    105 H           8.0750   -0.5759    0.0000 H       1  UNL1        0.0255
    106 H           8.3019    0.2710    0.0000 H       1  UNL1        0.0255
    107 H           7.4550    0.4980    0.0000 H       1  UNL1        0.0255
    108 H           6.8990   -2.9190    0.0000 H       1  UNL1        0.0910
    109 H           8.6310   -2.1590    0.0000 H       1  UNL1        0.0910
    110 H           6.2884   -4.4313    0.0000 H       1  UNL1        0.0340
    111 H           6.6869   -5.1216    0.0000 H       1  UNL1        0.0340
    112 H           9.0985   -2.5139    0.0000 H       1  UNL1        0.0340
    113 H           9.8956   -2.5139    0.0000 H       1  UNL1        0.0340
    114 H           8.3019   -5.3490    0.0000 H       1  UNL1        0.0625
    115 H           8.6310   -2.9190    0.0000 H       1  UNL1        0.0621
    116 H           9.1680   -4.2290    0.0000 H       1  UNL1        0.0645
    117 H          10.3631   -2.1590    0.0000 H       1  UNL1        0.0621
    118 H           8.9601    0.2710    0.0000 H       1  UNL1        0.0621
    119 H          10.9000   -0.8490    0.0000 H       1  UNL1        0.0645
    120 H           9.8070   -3.5759    0.0000 H       1  UNL1        0.0255
    121 H          10.0340   -2.7290    0.0000 H       1  UNL1        0.0255
    122 H           9.1870   -2.5020    0.0000 H       1  UNL1        0.0255
    123 H          10.1170    0.9610    0.0000 H       1  UNL1        0.0255
    124 H           9.4970    1.5810    0.0000 H       1  UNL1        0.0255
    125 H           8.8770    0.9610    0.0000 H       1  UNL1        0.0255
    126 H          10.0340   -4.7290    0.0000 H       1  UNL1        0.2100
    127 H           6.8990   -5.9190    0.0000 H       1  UNL1        0.0938
    128 H          11.7660   -1.7290    0.0000 H       1  UNL1        0.2099
    129 H          11.7660   -0.3490    0.0000 H       1  UNL1        0.2100
    130 H           7.4359   -7.2290    0.0000 H       1  UNL1        0.0671
    131 H           6.5699   -8.3490    0.0000 H       1  UNL1        0.0648
    132 H           5.1669   -5.9190    0.0000 H       1  UNL1        0.0647
    133 H           4.6300   -7.2290    0.0000 H       1  UNL1        0.0647
    134 H           8.3019   -7.7290    0.0000 H       1  UNL1        0.2101
    135 H           4.6994   -5.5640    0.0000 H       1  UNL1        0.0584
    136 H           3.9024   -5.5640    0.0000 H       1  UNL1        0.0584
    137 H           6.5699   -9.3490    0.0000 H       1  UNL1        0.2100
    138 H           4.3009   -8.6590    0.0000 H       1  UNL1        0.2100
    139 H           2.8979   -6.2290    0.0000 H       1  UNL1        0.2095
@<TRIPOS>BOND
     1     1    19    1
     2     1    95    1
     3    37     2    1
     4    41     2    1
     5     3    39    1
     6     3    42    1
     7     4    41    1
     8     4    45    1
     9     5    42    2
    10    44     6    1
    11    48     6    1
    12    46     7    1
    13    49     7    1
    14     8    48    1
    15     8    53    1
    16     9    49    1
    17     9    56    1
    18    52    10    1
    19    60    10    1
    20    54    11    1
    21    11   126    1
    22    55    12    1
    23    12   128    1
    24    57    13    1
    25    13   129    1
    26    14    60    1
    27    14    63    1
    28    61    15    1
    29    15   134    1
    30    62    16    1
    31    16   137    1
    32    64    17    1
    33    17   138    1
    34    18    65    1
    35    18   139    1
    36    19    20    1
    37    19    22    1
    38    19    29    1
    39    20    21    1
    40    20    28    1
    41    20    66    1
    42    21    23    1
    43    21    25    1
    44    21    67    1
    45    22    26    1
    46    22    27    1
    47    22    34    1
    48    23    24    1
    49    23    32    1
    50    23    35    1
    51    24    30    1
    52    24    33    1
    53    24    68    1
    54    25    26    1
    55    25    69    1
    56    25    70    1
    57    26    71    1
    58    26    72    1
    59    27    31    1
    60    27    38    1
    61    27    73    1
    62    28    30    1
    63    28    74    1
    64    28    75    1
    65    29    31    1
    66    29    76    1
    67    29    77    1
    68    30    78    1
    69    30    79    1
    70    31    80    1
    71    31    81    1
    72    32    36    1
    73    32    82    1
    74    32    83    1
    75    33    37    1
    76    33    84    1
    77    33    85    1
    78    34    86    1
    79    34    87    1
    80    34    88    1
    81    35    89    1
    82    35    90    1
    83    35    91    1
    84    36    37    1
    85    36    92    1
    86    36    93    1
    87    37    94    1
    88    38    39    1
    89    38    40    2
    90    39    96    1
    91    39    97    1
    92    40    42    1
    93    40    98    1
    94    41    43    1
    95    41    99    1
    96    43    44    1
    97    43   100    1
    98    43   101    1
    99    44    46    1
   100    44   102    1
   101    45    46    1
   102    45    47    1
   103    45   103    1
   104    46   104    1
   105    47   105    1
   106    47   106    1
   107    47   107    1
   108    48    50    1
   109    48   108    1
   110    49    51    1
   111    49   109    1
   112    50    52    1
   113    50   110    1
   114    50   111    1
   115    51    55    1
   116    51   112    1
   117    51   113    1
   118    52    54    1
   119    52   114    1
   120    53    54    1
   121    53    58    1
   122    53   115    1
   123    54   116    1
   124    55    57    1
   125    55   117    1
   126    56    57    1
   127    56    59    1
   128    56   118    1
   129    57   119    1
   130    58   120    1
   131    58   121    1
   132    58   122    1
   133    59   123    1
   134    59   124    1
   135    59   125    1
   136    60    61    1
   137    60   127    1
   138    61    62    1
   139    61   130    1
   140    62    64    1
   141    62   131    1
   142    63    64    1
   143    63    65    1
   144    63   132    1
   145    64   133    1
   146    65   135    1
   147    65   136    1
