@<TRIPOS>MOLECULE
IMPHY016477
 30 31 0 0 0
SMALL
GASTEIGER

@<TRIPOS>ATOM
      1 C           4.5981   -0.5000    0.0000 C.3     1  UNL1       -0.0159
      2 C           5.4920   -1.0347    0.0000 C.3     1  UNL1       -0.0459
      3 C           4.5981    0.5000    0.0000 C.2     1  UNL1       -0.0661
      4 C           3.7320   -1.0000    0.0000 C.3     1  UNL1       -0.0252
      5 C           6.3981   -0.5208    0.0000 C.3     1  UNL1       -0.0491
      6 C           3.7320    1.0000    0.0000 C.3     1  UNL1       -0.0103
      7 C           2.8660   -0.5000    0.0000 C.2     1  UNL1       -0.0728
      8 C           6.3981    0.5208    0.0000 C.3     1  UNL1       -0.0345
      9 C           2.8660    0.5000    0.0000 C.2     1  UNL1       -0.0696
     10 C           5.4920    1.0347    0.0000 C.2     1  UNL1       -0.0842
     11 C           2.0000   -1.0000    0.0000 C.3     1  UNL1       -0.0435
     12 C           2.0000    1.0000    0.0000 C.3     1  UNL1       -0.0432
     13 H           4.5933   -1.1200    0.0000 H       1  UNL1        0.0349
     14 H           5.0874   -1.5044    0.0000 H       1  UNL1        0.0271
     15 H           5.8856   -1.5137    0.0000 H       1  UNL1        0.0271
     16 H           3.3335   -1.4750    0.0000 H       1  UNL1        0.0316
     17 H           4.1306   -1.4750    0.0000 H       1  UNL1        0.0316
     18 H           6.6071   -1.1045    0.0000 H       1  UNL1        0.0268
     19 H           7.0089   -0.4147    0.0000 H       1  UNL1        0.0268
     20 H           4.1306    1.4750    0.0000 H       1  UNL1        0.0355
     21 H           3.3335    1.4750    0.0000 H       1  UNL1        0.0355
     22 H           7.0089    0.4147    0.0000 H       1  UNL1        0.0307
     23 H           6.6071    1.1045    0.0000 H       1  UNL1        0.0307
     24 H           5.4848    1.6546    0.0000 H       1  UNL1        0.0572
     25 H           1.6900   -0.4631    0.0000 H       1  UNL1        0.0274
     26 H           1.4631   -1.3100    0.0000 H       1  UNL1        0.0274
     27 H           2.3100   -1.5369    0.0000 H       1  UNL1        0.0274
     28 H           2.3100    1.5369    0.0000 H       1  UNL1        0.0275
     29 H           1.4631    1.3100    0.0000 H       1  UNL1        0.0275
     30 H           1.6900    0.4631    0.0000 H       1  UNL1        0.0275
@<TRIPOS>BOND
     1     1     2    1
     2     1     3    1
     3     1     4    1
     4     1    13    1
     5     2     5    1
     6     2    14    1
     7     2    15    1
     8     3     6    1
     9     3    10    2
    10     4     7    1
    11     4    16    1
    12     4    17    1
    13     5     8    1
    14     5    18    1
    15     5    19    1
    16     6     9    1
    17     6    20    1
    18     6    21    1
    19     7     9    2
    20     7    11    1
    21     8    10    1
    22     8    22    1
    23     8    23    1
    24     9    12    1
    25    10    24    1
    26    11    25    1
    27    11    26    1
    28    11    27    1
    29    12    28    1
    30    12    29    1
    31    12    30    1
