@<TRIPOS>MOLECULE
IMPHY014084
 27 26 0 0 0
SMALL
GASTEIGER

@<TRIPOS>ATOM
      1 O           2.8660    0.4400    0.0000 O.3     1  UNL1       -0.4677
      2 O           3.7320   -1.0600    0.0000 O.2     1  UNL1       -0.2505
      3 C           8.0622    0.4400    0.0000 C.3     1  UNL1       -0.0499
      4 C           7.1962   -0.0600    0.0000 C.3     1  UNL1       -0.0348
      5 C           8.9282   -0.0600    0.0000 C.3     1  UNL1       -0.0556
      6 C           6.3301    0.4400    0.0000 C.2     1  UNL1       -0.0874
      7 C           9.7942    0.4400    0.0000 C.3     1  UNL1       -0.0653
      8 C           5.4641   -0.0600    0.0000 C.2     1  UNL1       -0.0774
      9 C           4.5981    0.4400    0.0000 C.3     1  UNL1        0.0631
     10 C           3.7320   -0.0600    0.0000 C.2     1  UNL1        0.3106
     11 C           2.0000   -0.0600    0.0000 C.3     1  UNL1        0.0817
     12 H           8.4607    0.9149    0.0000 H       1  UNL1        0.0268
     13 H           7.6636    0.9149    0.0000 H       1  UNL1        0.0268
     14 H           6.7976   -0.5349    0.0000 H       1  UNL1        0.0307
     15 H           7.5947   -0.5349    0.0000 H       1  UNL1        0.0307
     16 H           8.5297   -0.5349    0.0000 H       1  UNL1        0.0263
     17 H           9.3267   -0.5349    0.0000 H       1  UNL1        0.0263
     18 H           6.3301    1.0600    0.0000 H       1  UNL1        0.0569
     19 H          10.1042   -0.0969    0.0000 H       1  UNL1        0.0230
     20 H          10.3312    0.7500    0.0000 H       1  UNL1        0.0230
     21 H           9.4842    0.9769    0.0000 H       1  UNL1        0.0230
     22 H           5.4641   -0.6800    0.0000 H       1  UNL1        0.0574
     23 H           4.9966    0.9149    0.0000 H       1  UNL1        0.0420
     24 H           4.1996    0.9149    0.0000 H       1  UNL1        0.0420
     25 H           1.6900    0.4769    0.0000 H       1  UNL1        0.0661
     26 H           1.4631   -0.3700    0.0000 H       1  UNL1        0.0661
     27 H           2.3100   -0.5969    0.0000 H       1  UNL1        0.0661
@<TRIPOS>BOND
     1     1    10    1
     2     1    11    1
     3     2    10    2
     4     3     4    1
     5     3     5    1
     6     3    12    1
     7     3    13    1
     8     4     6    1
     9     4    14    1
    10     4    15    1
    11     5     7    1
    12     5    16    1
    13     5    17    1
    14     6     8    2
    15     6    18    1
    16     7    19    1
    17     7    20    1
    18     7    21    1
    19     8     9    1
    20     8    22    1
    21     9    10    1
    22     9    23    1
    23     9    24    1
    24    11    25    1
    25    11    26    1
    26    11    27    1
