@<TRIPOS>MOLECULE
IMPHY002577
 42 45 0 0 0
SMALL
GASTEIGER

@<TRIPOS>ATOM
      1 O           5.5103    1.3172    0.0000 O.3     1  UNL1       -0.5029
      2 O           7.2762    2.3550    0.0000 O.3     1  UNL1       -0.4914
      3 O           2.8680   -0.1901    0.0000 O.3     1  UNL1       -0.4914
      4 O           2.8680   -2.2384    0.0000 O.3     1  UNL1       -0.5033
      5 N           8.1223   -2.2112    0.0000 N.3     1  UNL1       -0.3087
      6 C           7.2641   -1.7142    0.0000 C.3     1  UNL1        0.0378
      7 C           7.2641   -0.7142    0.0000 C.ar    1  UNL1       -0.0155
      8 C           6.3981   -2.2142    0.0000 C.3     1  UNL1       -0.0074
      9 C           8.1741   -0.2074    0.0000 C.ar    1  UNL1       -0.0372
     10 C           6.3981   -0.2142    0.0000 C.ar    1  UNL1        0.0325
     11 C           9.0134   -0.7356    0.0000 C.3     1  UNL1       -0.0146
     12 C           5.5320   -1.7142    0.0000 C.ar    1  UNL1       -0.0341
     13 C           8.9878   -1.7270    0.0000 C.3     1  UNL1        0.0004
     14 C           5.5320   -0.7142    0.0000 C.ar    1  UNL1       -0.0070
     15 C           6.3820    0.8273    0.0000 C.ar    1  UNL1        0.1666
     16 C           8.1821    0.8342    0.0000 C.ar    1  UNL1       -0.0127
     17 C           7.2800    1.3550    0.0000 C.ar    1  UNL1        0.1622
     18 C           4.6381   -2.2489    0.0000 C.ar    1  UNL1       -0.0127
     19 C           4.6381   -0.1796    0.0000 C.ar    1  UNL1       -0.0082
     20 C           3.7320   -0.6934    0.0000 C.ar    1  UNL1        0.1619
     21 C           3.7320   -1.7350    0.0000 C.ar    1  UNL1        0.1587
     22 C           8.1403    2.8584    0.0000 C.3     1  UNL1        0.0790
     23 C           2.0000   -0.6867    0.0000 C.3     1  UNL1        0.0790
     24 H           7.2636   -2.5642    0.0000 H       1  UNL1        0.0513
     25 H           5.9995   -2.6892    0.0000 H       1  UNL1        0.0332
     26 H           6.7966   -2.6892    0.0000 H       1  UNL1        0.0332
     27 H           8.1177   -2.8311    0.0000 H       1  UNL1        0.1225
     28 H           9.6205   -0.8615    0.0000 H       1  UNL1        0.0326
     29 H           9.2452   -0.1605    0.0000 H       1  UNL1        0.0326
     30 H           9.1895   -2.3132    0.0000 H       1  UNL1        0.0427
     31 H           9.6006   -1.6326    0.0000 H       1  UNL1        0.0427
     32 H           8.7203    1.1422    0.0000 H       1  UNL1        0.0658
     33 H           4.6453   -2.8688    0.0000 H       1  UNL1        0.0658
     34 H           4.6453    0.4404    0.0000 H       1  UNL1        0.0661
     35 H           5.5031    1.9372    0.0000 H       1  UNL1        0.2923
     36 H           2.8703   -2.8584    0.0000 H       1  UNL1        0.2923
     37 H           8.4523    2.3226    0.0000 H       1  UNL1        0.0660
     38 H           8.6760    3.1704    0.0000 H       1  UNL1        0.0660
     39 H           7.8282    3.3941    0.0000 H       1  UNL1        0.0660
     40 H           1.6921   -0.1486    0.0000 H       1  UNL1        0.0660
     41 H           1.4619   -0.9947    0.0000 H       1  UNL1        0.0660
     42 H           2.3079   -1.2249    0.0000 H       1  UNL1        0.0660
@<TRIPOS>BOND
     1     1    15    1
     2     1    35    1
     3     2    17    1
     4     2    22    1
     5     3    20    1
     6     3    23    1
     7     4    21    1
     8     4    36    1
     9     5     6    1
    10     5    13    1
    11     5    27    1
    12     6     7    1
    13     6     8    1
    14     6    24    1
    15     7     9   ar
    16     7    10   ar
    17     8    12    1
    18     8    25    1
    19     8    26    1
    20     9    11    1
    21     9    16   ar
    22    10    14    1
    23    10    15   ar
    24    11    13    1
    25    11    28    1
    26    11    29    1
    27    12    14   ar
    28    12    18   ar
    29    13    30    1
    30    13    31    1
    31    14    19   ar
    32    15    17   ar
    33    16    17   ar
    34    16    32    1
    35    18    21   ar
    36    18    33    1
    37    19    20   ar
    38    19    34    1
    39    20    21   ar
    40    22    37    1
    41    22    38    1
    42    22    39    1
    43    23    40    1
    44    23    41    1
    45    23    42    1
