@<TRIPOS>MOLECULE
IMPHY005669
 52 54 0 0 0
SMALL
GASTEIGER

@<TRIPOS>ATOM
      1 O           4.2690   -2.4050    0.0000 O.3     1  UNL1       -0.3313
      2 O           2.5369   -4.4050    0.0000 O.3     1  UNL1       -0.3865
      3 O           4.2690   -5.4050    0.0000 O.3     1  UNL1       -0.3864
      4 O           6.0010   -2.4050    0.0000 O.3     1  UNL1       -0.4607
      5 O           6.0010   -4.4050    0.0000 O.3     1  UNL1       -0.3829
      6 O           2.5369   -1.4050    0.0000 O.3     1  UNL1       -0.3924
      7 O           4.2690    0.5950    0.0000 O.3     1  UNL1       -0.5059
      8 O           5.1350    2.0950    0.0000 O.2     1  UNL1       -0.2872
      9 O          10.3312    5.0950    0.0000 O.3     1  UNL1       -0.5068
     10 C           3.4030   -3.9050    0.0000 C.3     1  UNL1        0.1120
     11 C           4.2690   -4.4050    0.0000 C.3     1  UNL1        0.1152
     12 C           3.4030   -2.9050    0.0000 C.3     1  UNL1        0.1140
     13 C           5.1350   -3.9050    0.0000 C.3     1  UNL1        0.1454
     14 C           5.1350   -2.9050    0.0000 C.3     1  UNL1        0.2308
     15 C           2.5369   -2.4050    0.0000 C.3     1  UNL1        0.0731
     16 C           6.0010   -1.4050    0.0000 C.ar    1  UNL1        0.1275
     17 C           5.1350   -0.9050    0.0000 C.ar    1  UNL1        0.0224
     18 C           6.8671   -0.9050    0.0000 C.ar    1  UNL1       -0.0189
     19 C           5.1350    0.0950    0.0000 C.ar    1  UNL1        0.1311
     20 C           6.8671    0.0950    0.0000 C.ar    1  UNL1       -0.0440
     21 C           6.0010    0.5950    0.0000 C.ar    1  UNL1        0.0632
     22 C           6.0010    1.5950    0.0000 C.2     1  UNL1        0.1896
     23 C           6.8671    2.0950    0.0000 C.2     1  UNL1       -0.0137
     24 C           6.8671    3.0950    0.0000 C.2     1  UNL1       -0.0510
     25 C           7.7331    3.5950    0.0000 C.ar    1  UNL1       -0.0247
     26 C           8.5991    3.0950    0.0000 C.ar    1  UNL1       -0.0511
     27 C           7.7331    4.5950    0.0000 C.ar    1  UNL1       -0.0511
     28 C           9.4651    3.5950    0.0000 C.ar    1  UNL1       -0.0196
     29 C           8.5991    5.0950    0.0000 C.ar    1  UNL1       -0.0196
     30 C           9.4651    4.5950    0.0000 C.ar    1  UNL1        0.1169
     31 H           2.8660   -3.5950    0.0000 H       1  UNL1        0.0647
     32 H           4.8059   -4.7150    0.0000 H       1  UNL1        0.0648
     33 H           3.4030   -2.2850    0.0000 H       1  UNL1        0.0647
     34 H           5.6720   -3.5950    0.0000 H       1  UNL1        0.0683
     35 H           5.1350   -2.2850    0.0000 H       1  UNL1        0.1084
     36 H           1.9264   -2.2973    0.0000 H       1  UNL1        0.0584
     37 H           2.3249   -2.9876    0.0000 H       1  UNL1        0.0584
     38 H           2.0000   -4.0950    0.0000 H       1  UNL1        0.2100
     39 H           3.7320   -5.7150    0.0000 H       1  UNL1        0.2100
     40 H           6.5380   -4.0950    0.0000 H       1  UNL1        0.2102
     41 H           2.0000   -1.0950    0.0000 H       1  UNL1        0.2095
     42 H           4.5981   -1.2150    0.0000 H       1  UNL1        0.0691
     43 H           7.4040   -1.2150    0.0000 H       1  UNL1        0.0654
     44 H           7.4040    0.4050    0.0000 H       1  UNL1        0.0627
     45 H           3.7320    0.2850    0.0000 H       1  UNL1        0.2922
     46 H           7.4040    1.7850    0.0000 H       1  UNL1        0.0656
     47 H           6.3301    3.4050    0.0000 H       1  UNL1        0.0625
     48 H           8.5991    2.4750    0.0000 H       1  UNL1        0.0625
     49 H           7.1962    4.9050    0.0000 H       1  UNL1        0.0625
     50 H          10.0021    3.2850    0.0000 H       1  UNL1        0.0654
     51 H           8.5991    5.7150    0.0000 H       1  UNL1        0.0654
     52 H          10.3312    5.7150    0.0000 H       1  UNL1        0.2921
@<TRIPOS>BOND
     1     1    12    1
     2     1    14    1
     3    10     2    1
     4     2    38    1
     5    11     3    1
     6     3    39    1
     7    14     4    1
     8     4    16    1
     9    13     5    1
    10     5    40    1
    11     6    15    1
    12     6    41    1
    13     7    19    1
    14     7    45    1
    15     8    22    2
    16     9    30    1
    17     9    52    1
    18    10    11    1
    19    10    12    1
    20    10    31    1
    21    11    13    1
    22    11    32    1
    23    12    15    1
    24    12    33    1
    25    13    14    1
    26    13    34    1
    27    14    35    1
    28    15    36    1
    29    15    37    1
    30    16    17   ar
    31    16    18   ar
    32    17    19   ar
    33    17    42    1
    34    18    20   ar
    35    18    43    1
    36    19    21   ar
    37    20    21   ar
    38    20    44    1
    39    21    22    1
    40    22    23    1
    41    23    24    2
    42    23    46    1
    43    24    25    1
    44    24    47    1
    45    25    26   ar
    46    25    27   ar
    47    26    28   ar
    48    26    48    1
    49    27    29   ar
    50    27    49    1
    51    28    30   ar
    52    28    50    1
    53    29    30   ar
    54    29    51    1
