@<TRIPOS>MOLECULE
IMPHY015216
 24 25 0 0 0
SMALL
GASTEIGER

@<TRIPOS>ATOM
      1 N           5.0846   -1.0347    0.0000 N.ar    1  UNL1       -0.2596
      2 C           2.0000   -0.0000    0.0000 C.3     1  UNL1       -0.0524
      3 C           2.4339    0.9010    0.0000 C.3     1  UNL1       -0.0490
      4 C           2.4339   -0.9010    0.0000 C.3     1  UNL1       -0.0476
      5 C           3.4088    1.1235    0.0000 C.3     1  UNL1       -0.0260
      6 C           3.4088   -1.1235    0.0000 C.3     1  UNL1       -0.0101
      7 C           4.1906    0.5000    0.0000 C.ar    1  UNL1       -0.0261
      8 C           4.1906   -0.5000    0.0000 C.ar    1  UNL1        0.0444
      9 C           5.0846    1.0347    0.0000 C.ar    1  UNL1       -0.0554
     10 C           5.9906    0.5208    0.0000 C.ar    1  UNL1       -0.0433
     11 C           5.9906   -0.5208    0.0000 C.ar    1  UNL1        0.0279
     12 H           1.5153    0.3866    0.0000 H       1  UNL1        0.0265
     13 H           1.5153   -0.3866    0.0000 H       1  UNL1        0.0265
     14 H           2.4339    1.5210    0.0000 H       1  UNL1        0.0268
     15 H           1.8294    1.0389    0.0000 H       1  UNL1        0.0268
     16 H           1.8294   -1.0389    0.0000 H       1  UNL1        0.0269
     17 H           2.4339   -1.5210    0.0000 H       1  UNL1        0.0269
     18 H           3.8936    1.5100    0.0000 H       1  UNL1        0.0314
     19 H           3.1398    1.6821    0.0000 H       1  UNL1        0.0314
     20 H           3.1398   -1.6821    0.0000 H       1  UNL1        0.0328
     21 H           3.8936   -1.5100    0.0000 H       1  UNL1        0.0328
     22 H           5.0774    1.6546    0.0000 H       1  UNL1        0.0621
     23 H           6.5264    0.8329    0.0000 H       1  UNL1        0.0633
     24 H           6.5264   -0.8329    0.0000 H       1  UNL1        0.0829
@<TRIPOS>BOND
     1     1     8   ar
     2     1    11   ar
     3     2     3    1
     4     2     4    1
     5     2    12    1
     6     2    13    1
     7     3     5    1
     8     3    14    1
     9     3    15    1
    10     4     6    1
    11     4    16    1
    12     4    17    1
    13     5     7    1
    14     5    18    1
    15     5    19    1
    16     6     8    1
    17     6    20    1
    18     6    21    1
    19     7     8   ar
    20     7     9   ar
    21     9    10   ar
    22     9    22    1
    23    10    11   ar
    24    10    23    1
    25    11    24    1
