@<TRIPOS>MOLECULE
IMPHY004455
 46 50 0 0 0
SMALL
GASTEIGER

@<TRIPOS>ATOM
      1 O           4.6571   -3.7408    0.0000 O.3     1  UNL1       -0.4523
      2 O           3.2118   -4.5902    0.0000 O.3     1  UNL1       -0.4526
      3 O           2.0116    3.1265    0.0000 O.3     1  UNL1       -0.4914
      4 O           3.8149    4.1863    0.0000 O.3     1  UNL1       -0.4914
      5 N           4.7340   -0.5104    0.0000 N.3     1  UNL1       -0.2905
      6 C           3.8680   -0.0104    0.0000 C.3     1  UNL1        0.0403
      7 C           3.0020   -0.5104    0.0000 C.3     1  UNL1       -0.0074
      8 C           5.6440   -0.0036    0.0000 C.3     1  UNL1        0.0038
      9 C           4.7340   -1.5104    0.0000 C.3     1  UNL1        0.0285
     10 C           3.8520    1.0311    0.0000 C.ar    1  UNL1       -0.0231
     11 C           5.6521    1.0380    0.0000 C.3     1  UNL1       -0.0144
     12 C           3.0020   -1.5104    0.0000 C.ar    1  UNL1       -0.0375
     13 C           3.8680   -2.0104    0.0000 C.ar    1  UNL1        0.0153
     14 C           4.7500    1.5588    0.0000 C.ar    1  UNL1       -0.0378
     15 C           3.8841   -3.0519    0.0000 C.ar    1  UNL1        0.1709
     16 C           2.9000    1.5517    0.0000 C.ar    1  UNL1       -0.0114
     17 C           2.0920   -2.0173    0.0000 C.ar    1  UNL1       -0.0545
     18 C           4.7584    2.6438    0.0000 C.ar    1  UNL1       -0.0128
     19 C           2.9860   -3.5797    0.0000 C.ar    1  UNL1        0.1666
     20 C           2.8833    2.6366    0.0000 C.ar    1  UNL1        0.1618
     21 C           2.0840   -3.0589    0.0000 C.ar    1  UNL1       -0.0159
     22 C           3.8187    3.1863    0.0000 C.ar    1  UNL1        0.1618
     23 C           4.2424   -4.6896    0.0000 C.3     1  UNL1        0.2332
     24 C           2.0000    4.1265    0.0000 C.3     1  UNL1        0.0790
     25 C           4.6790    4.6896    0.0000 C.3     1  UNL1        0.0790
     26 H           3.3287    0.2954    0.0000 H       1  UNL1        0.0516
     27 H           2.7900    0.0722    0.0000 H       1  UNL1        0.0332
     28 H           2.3914   -0.6181    0.0000 H       1  UNL1        0.0332
     29 H           5.8486   -0.5889    0.0000 H       1  UNL1        0.0430
     30 H           6.2557    0.0978    0.0000 H       1  UNL1        0.0430
     31 H           4.9461   -2.0930    0.0000 H       1  UNL1        0.0477
     32 H           5.3446   -1.4028    0.0000 H       1  UNL1        0.0477
     33 H           6.2621    0.9272    0.0000 H       1  UNL1        0.0326
     34 H           5.8656    1.6201    0.0000 H       1  UNL1        0.0326
     35 H           2.3692    1.2314    0.0000 H       1  UNL1        0.0659
     36 H           1.5587   -1.7011    0.0000 H       1  UNL1        0.0622
     37 H           5.2965    2.9517    0.0000 H       1  UNL1        0.0658
     38 H           1.5458   -3.3668    0.0000 H       1  UNL1        0.0655
     39 H           4.1184   -5.2971    0.0000 H       1  UNL1        0.1166
     40 H           4.8335   -4.8768    0.0000 H       1  UNL1        0.1166
     41 H           2.6200    4.1336    0.0000 H       1  UNL1        0.0660
     42 H           1.9928    4.7464    0.0000 H       1  UNL1        0.0660
     43 H           1.3800    4.1193    0.0000 H       1  UNL1        0.0660
     44 H           4.9910    4.1539    0.0000 H       1  UNL1        0.0660
     45 H           5.2147    5.0017    0.0000 H       1  UNL1        0.0660
     46 H           4.3669    5.2254    0.0000 H       1  UNL1        0.0660
@<TRIPOS>BOND
     1     1    15    1
     2     1    23    1
     3     2    19    1
     4     2    23    1
     5     3    20    1
     6     3    24    1
     7     4    22    1
     8     4    25    1
     9     5     6    1
    10     5     8    1
    11     5     9    1
    12     6     7    1
    13     6    10    1
    14     6    26    1
    15     7    12    1
    16     7    27    1
    17     7    28    1
    18     8    11    1
    19     8    29    1
    20     8    30    1
    21     9    13    1
    22     9    31    1
    23     9    32    1
    24    10    14   ar
    25    10    16   ar
    26    11    14    1
    27    11    33    1
    28    11    34    1
    29    12    13   ar
    30    12    17   ar
    31    13    15   ar
    32    14    18   ar
    33    15    19   ar
    34    16    20   ar
    35    16    35    1
    36    17    21   ar
    37    17    36    1
    38    18    22   ar
    39    18    37    1
    40    19    21   ar
    41    20    22   ar
    42    21    38    1
    43    23    39    1
    44    23    40    1
    45    24    41    1
    46    24    42    1
    47    24    43    1
    48    25    44    1
    49    25    45    1
    50    25    46    1
