@<TRIPOS>MOLECULE
IMPHY007996
 29 31 0 0 0
SMALL
GASTEIGER

@<TRIPOS>ATOM
      1 O           5.7367   -1.5701    0.0000 O.3     1  UNL1       -0.4944
      2 N           4.8717    1.7009    0.0000 N.ar    1  UNL1       -0.3540
      3 C           4.3717    0.1621    0.0000 C.ar    1  UNL1        0.0111
      4 C           5.3717    0.1621    0.0000 C.ar    1  UNL1        0.0490
      5 C           4.0627    1.1131    0.0000 C.ar    1  UNL1        0.0476
      6 C           5.6808    1.1131    0.0000 C.ar    1  UNL1        0.0510
      7 C           3.6868   -0.6227    0.0000 C.ar    1  UNL1       -0.0490
      8 C           6.0567   -0.6227    0.0000 C.ar    1  UNL1        0.1298
      9 C           3.0473    1.3454    0.0000 C.ar    1  UNL1       -0.0375
     10 C           2.6663   -0.4140    0.0000 C.ar    1  UNL1       -0.0497
     11 C           6.6962    1.3454    0.0000 C.ar    1  UNL1       -0.0375
     12 C           2.3444    0.5767    0.0000 C.ar    1  UNL1       -0.0569
     13 C           7.0772   -0.4140    0.0000 C.ar    1  UNL1       -0.0192
     14 C           7.3991    0.5767    0.0000 C.ar    1  UNL1       -0.0563
     15 C           2.0000   -1.1597    0.0000 C.3     1  UNL1       -0.0397
     16 C           6.3972   -2.3209    0.0000 C.3     1  UNL1        0.0788
     17 H           4.8717    2.3209    0.0000 H       1  UNL1        0.1659
     18 H           3.8852   -1.2101    0.0000 H       1  UNL1        0.0627
     19 H           2.8626    1.9372    0.0000 H       1  UNL1        0.0638
     20 H           6.8809    1.9372    0.0000 H       1  UNL1        0.0638
     21 H           1.7384    0.7079    0.0000 H       1  UNL1        0.0621
     22 H           7.4903   -0.8763    0.0000 H       1  UNL1        0.0654
     23 H           8.0050    0.7079    0.0000 H       1  UNL1        0.0619
     24 H           1.5376   -0.7466    0.0000 H       1  UNL1        0.0278
     25 H           1.5869   -1.6220    0.0000 H       1  UNL1        0.0278
     26 H           2.4623   -1.5728    0.0000 H       1  UNL1        0.0278
     27 H           5.9317   -2.7304    0.0000 H       1  UNL1        0.0660
     28 H           6.8067   -2.7864    0.0000 H       1  UNL1        0.0660
     29 H           6.8627   -1.9114    0.0000 H       1  UNL1        0.0660
@<TRIPOS>BOND
     1     1     8    1
     2     1    16    1
     3     2     5   ar
     4     2     6   ar
     5     2    17    1
     6     3     4   ar
     7     3     5   ar
     8     3     7   ar
     9     4     6   ar
    10     4     8   ar
    11     5     9   ar
    12     6    11   ar
    13     7    10   ar
    14     7    18    1
    15     8    13   ar
    16     9    12   ar
    17     9    19    1
    18    10    12   ar
    19    10    15    1
    20    11    14   ar
    21    11    20    1
    22    12    21    1
    23    13    14   ar
    24    13    22    1
    25    14    23    1
    26    15    24    1
    27    15    25    1
    28    15    26    1
    29    16    27    1
    30    16    28    1
    31    16    29    1
