@<TRIPOS>MOLECULE
IMPHY009395
 53 56 0 0 0
SMALL
GASTEIGER

@<TRIPOS>ATOM
      1 O           5.1350   -1.6796    0.0000 O.3     1  UNL1       -0.3313
      2 O           6.8671   -1.6796    0.0000 O.3     1  UNL1       -0.4607
      3 O           5.1350   -4.6796    0.0000 O.3     1  UNL1       -0.3864
      4 O           3.4030   -3.6796    0.0000 O.3     1  UNL1       -0.3865
      5 O           6.8671   -3.6796    0.0000 O.3     1  UNL1       -0.3829
      6 O           2.5369   -2.1796    0.0000 O.3     1  UNL1       -0.3924
      7 O           8.6230    1.3829    0.0000 O.3     1  UNL1       -0.4830
      8 O           6.0308    2.8930    0.0000 O.2     1  UNL1       -0.2918
      9 O          12.0910    2.3696    0.0000 O.3     1  UNL1       -0.5033
     10 O          12.0987    4.3696    0.0000 O.3     1  UNL1       -0.5033
     11 C           5.1350   -3.6796    0.0000 C.3     1  UNL1        0.1152
     12 C           4.2690   -3.1796    0.0000 C.3     1  UNL1        0.1120
     13 C           6.0010   -3.1796    0.0000 C.3     1  UNL1        0.1454
     14 C           4.2690   -2.1796    0.0000 C.3     1  UNL1        0.1140
     15 C           6.0010   -2.1796    0.0000 C.3     1  UNL1        0.2308
     16 C           3.4030   -1.6796    0.0000 C.3     1  UNL1        0.0731
     17 C           6.8671   -0.6796    0.0000 C.ar    1  UNL1        0.1275
     18 C           8.6269    2.3829    0.0000 C.3     1  UNL1        0.1323
     19 C           7.7628    2.8863    0.0000 C.3     1  UNL1        0.0519
     20 C           7.7551    0.8863    0.0000 C.ar    1  UNL1        0.1353
     21 C           6.8910    1.3896    0.0000 C.ar    1  UNL1        0.0594
     22 C           7.7671   -0.1553    0.0000 C.ar    1  UNL1        0.0226
     23 C           6.8948    2.3896    0.0000 C.2     1  UNL1        0.1705
     24 C           5.9670   -0.1553    0.0000 C.ar    1  UNL1       -0.0189
     25 C           9.4948    2.8796    0.0000 C.ar    1  UNL1       -0.0033
     26 C           5.9790    0.8863    0.0000 C.ar    1  UNL1       -0.0443
     27 C          10.3589    2.3763    0.0000 C.ar    1  UNL1       -0.0099
     28 C           9.4987    3.8796    0.0000 C.ar    1  UNL1       -0.0514
     29 C          11.2269    2.8729    0.0000 C.ar    1  UNL1        0.1586
     30 C          10.3666    4.3762    0.0000 C.ar    1  UNL1       -0.0162
     31 C          11.2307    3.8729    0.0000 C.ar    1  UNL1        0.1582
     32 H           5.6720   -3.9896    0.0000 H       1  UNL1        0.0648
     33 H           4.2690   -3.7996    0.0000 H       1  UNL1        0.0647
     34 H           6.5380   -2.8696    0.0000 H       1  UNL1        0.0683
     35 H           4.2690   -1.5596    0.0000 H       1  UNL1        0.0647
     36 H           6.0010   -1.5596    0.0000 H       1  UNL1        0.1084
     37 H           3.8015   -1.2046    0.0000 H       1  UNL1        0.0584
     38 H           3.0044   -1.2046    0.0000 H       1  UNL1        0.0584
     39 H           4.5981   -4.9896    0.0000 H       1  UNL1        0.2100
     40 H           3.4030   -4.2996    0.0000 H       1  UNL1        0.2100
     41 H           7.4040   -3.3696    0.0000 H       1  UNL1        0.2102
     42 H           8.6293    3.0029    0.0000 H       1  UNL1        0.0789
     43 H           8.1632    3.3597    0.0000 H       1  UNL1        0.0385
     44 H           7.3661    3.3628    0.0000 H       1  UNL1        0.0385
     45 H           8.3064   -0.4611    0.0000 H       1  UNL1        0.0691
     46 H           5.4277   -0.4611    0.0000 H       1  UNL1        0.0654
     47 H           2.0000   -1.8696    0.0000 H       1  UNL1        0.2095
     48 H           5.4470    1.2045    0.0000 H       1  UNL1        0.0627
     49 H          10.3565    1.7563    0.0000 H       1  UNL1        0.0659
     50 H           8.9630    4.1916    0.0000 H       1  UNL1        0.0623
     51 H          10.3690    4.9962    0.0000 H       1  UNL1        0.0655
     52 H          12.6291    2.6775    0.0000 H       1  UNL1        0.2923
     53 H          12.1011    4.9896    0.0000 H       1  UNL1        0.2923
@<TRIPOS>BOND
     1     1    14    1
     2     1    15    1
     3     2    15    1
     4     2    17    1
     5     3    11    1
     6     3    39    1
     7     4    12    1
     8     4    40    1
     9     5    13    1
    10     5    41    1
    11     6    16    1
    12     6    47    1
    13     7    18    1
    14     7    20    1
    15     8    23    2
    16     9    29    1
    17     9    52    1
    18    10    31    1
    19    10    53    1
    20    11    12    1
    21    11    13    1
    22    11    32    1
    23    12    14    1
    24    12    33    1
    25    13    15    1
    26    13    34    1
    27    14    16    1
    28    14    35    1
    29    15    36    1
    30    16    37    1
    31    16    38    1
    32    17    22   ar
    33    17    24   ar
    34    18    19    1
    35    18    25    1
    36    18    42    1
    37    19    23    1
    38    19    43    1
    39    19    44    1
    40    20    21   ar
    41    20    22   ar
    42    21    23    1
    43    21    26   ar
    44    22    45    1
    45    24    26   ar
    46    24    46    1
    47    25    27   ar
    48    25    28   ar
    49    26    48    1
    50    27    29   ar
    51    27    49    1
    52    28    30   ar
    53    28    50    1
    54    29    31   ar
    55    30    31   ar
    56    30    51    1
