@<TRIPOS>MOLECULE
IMPHY000989
 37 39 0 0 0
SMALL
GASTEIGER

@<TRIPOS>ATOM
      1 O           3.7230   -0.8445    0.0000 O.3     1  UNL1       -0.4571
      2 O           4.5447    2.3208    0.0000 O.3     1  UNL1       -0.3907
      3 O           7.0268   -2.8331    0.0000 O.2     1  UNL1       -0.2971
      4 O           2.0000   -0.4124    0.0000 O.2     1  UNL1       -0.2453
      5 C           5.4786   -0.7708    0.0000 C.3     1  UNL1        0.0129
      6 C           6.3796   -0.3369    0.0000 C.3     1  UNL1       -0.0066
      7 C           4.5777   -0.3369    0.0000 C.3     1  UNL1        0.1167
      8 C           5.6146   -1.7555    0.0000 C.3     1  UNL1        0.0214
      9 C           4.3551    0.6380    0.0000 C.3     1  UNL1        0.0539
     10 C           7.0647   -1.0572    0.0000 C.3     1  UNL1        0.0130
     11 C           4.9786    1.4199    0.0000 C.3     1  UNL1        0.0693
     12 C           6.6021    0.6380    0.0000 C.2     1  UNL1       -0.0703
     13 C           6.5929   -1.9322    0.0000 C.2     1  UNL1        0.1371
     14 C           5.9786    1.4199    0.0000 C.3     1  UNL1       -0.0049
     15 C           3.3648    0.7246    0.0000 C.2     1  UNL1        0.0386
     16 C           4.8930   -2.4478    0.0000 C.3     1  UNL1       -0.0553
     17 C           2.9749   -0.1898    0.0000 C.2     1  UNL1        0.3353
     18 C           7.5770    0.8606    0.0000 C.2     1  UNL1       -0.0991
     19 C           2.8504    1.5822    0.0000 C.2     1  UNL1       -0.0882
     20 H           4.7916   -1.2713    0.0000 H       1  UNL1        0.0349
     21 H           7.1993   -0.1118    0.0000 H       1  UNL1        0.0354
     22 H           4.6147   -1.1861    0.0000 H       1  UNL1        0.0744
     23 H           5.0290   -1.5520    0.0000 H       1  UNL1        0.0379
     24 H           5.1838    0.4489    0.0000 H       1  UNL1        0.0412
     25 H           7.5765   -1.4072    0.0000 H       1  UNL1        0.0348
     26 H           7.4666   -0.5850    0.0000 H       1  UNL1        0.0348
     27 H           4.3625    1.4893    0.0000 H       1  UNL1        0.0604
     28 H           6.5372    1.6889    0.0000 H       1  UNL1        0.0335
     29 H           5.8407    2.0243    0.0000 H       1  UNL1        0.0335
     30 H           4.4638   -2.0004    0.0000 H       1  UNL1        0.0237
     31 H           4.4456   -2.8770    0.0000 H       1  UNL1        0.0237
     32 H           5.3223   -2.8952    0.0000 H       1  UNL1        0.0237
     33 H           7.9988    0.4061    0.0000 H       1  UNL1        0.0535
     34 H           7.7598    1.4530    0.0000 H       1  UNL1        0.0535
     35 H           4.8940    2.8331    0.0000 H       1  UNL1        0.2098
     36 H           3.1514    2.1242    0.0000 H       1  UNL1        0.0540
     37 H           2.2305    1.5718    0.0000 H       1  UNL1        0.0540
@<TRIPOS>BOND
     1     1     7    1
     2     1    17    1
     3    11     2    1
     4     2    35    1
     5     3    13    2
     6     4    17    2
     7     5     6    1
     8     5     7    1
     9     5     8    1
    10     5    20    1
    11     6    10    1
    12     6    12    1
    13     6    21    1
    14     7     9    1
    15     7    22    1
    16     8    13    1
    17     8    16    1
    18     8    23    1
    19     9    11    1
    20     9    15    1
    21     9    24    1
    22    10    13    1
    23    10    25    1
    24    10    26    1
    25    11    14    1
    26    11    27    1
    27    12    14    1
    28    12    18    2
    29    14    28    1
    30    14    29    1
    31    15    17    1
    32    15    19    2
    33    16    30    1
    34    16    31    1
    35    16    32    1
    36    18    33    1
    37    18    34    1
    38    19    36    1
    39    19    37    1
