@<TRIPOS>MOLECULE
IMPHY017071
 24 25 0 0 0
SMALL
GASTEIGER

@<TRIPOS>ATOM
      1 C           3.7320   -0.5000    0.0000 C.ar    1  UNL1       -0.0470
      2 C           5.4641   -0.5000    0.0000 C.ar    1  UNL1       -0.0176
      3 C           5.4641    0.5000    0.0000 C.ar    1  UNL1       -0.0179
      4 C           2.8660   -1.0000    0.0000 C.3     1  UNL1       -0.0305
      5 C           4.5981   -1.0000    0.0000 C.ar    1  UNL1       -0.0509
      6 C           3.7320    0.5000    0.0000 C.ar    1  UNL1       -0.0580
      7 C           4.5981    1.0000    0.0000 C.ar    1  UNL1       -0.0538
      8 C           6.3580   -1.0347    0.0000 C.ar    1  UNL1       -0.0540
      9 C           6.3580    1.0347    0.0000 C.ar    1  UNL1       -0.0540
     10 C           2.0000   -0.5000    0.0000 C.3     1  UNL1       -0.0613
     11 C           7.2641   -0.5208    0.0000 C.ar    1  UNL1       -0.0612
     12 C           7.2641    0.5208    0.0000 C.ar    1  UNL1       -0.0612
     13 H           2.4675   -1.4750    0.0000 H       1  UNL1        0.0311
     14 H           3.2646   -1.4750    0.0000 H       1  UNL1        0.0311
     15 H           4.5981   -1.6200    0.0000 H       1  UNL1        0.0626
     16 H           3.1951    0.8100    0.0000 H       1  UNL1        0.0620
     17 H           4.5981    1.6200    0.0000 H       1  UNL1        0.0624
     18 H           6.3509   -1.6546    0.0000 H       1  UNL1        0.0624
     19 H           6.3509    1.6546    0.0000 H       1  UNL1        0.0624
     20 H           2.3100    0.0369    0.0000 H       1  UNL1        0.0233
     21 H           1.4631   -0.1900    0.0000 H       1  UNL1        0.0233
     22 H           1.6900   -1.0369    0.0000 H       1  UNL1        0.0233
     23 H           7.7998   -0.8329    0.0000 H       1  UNL1        0.0618
     24 H           7.7998    0.8329    0.0000 H       1  UNL1        0.0618
@<TRIPOS>BOND
     1     1     4    1
     2     1     5   ar
     3     1     6   ar
     4     2     3   ar
     5     2     5   ar
     6     2     8   ar
     7     3     7   ar
     8     3     9   ar
     9     4    10    1
    10     4    13    1
    11     4    14    1
    12     5    15    1
    13     6     7   ar
    14     6    16    1
    15     7    17    1
    16     8    11   ar
    17     8    18    1
    18     9    12   ar
    19     9    19    1
    20    10    20    1
    21    10    21    1
    22    10    22    1
    23    11    12   ar
    24    11    23    1
    25    12    24    1
