@<TRIPOS>MOLECULE
IMPHY013446
 75 79 0 0 0
SMALL
GASTEIGER

@<TRIPOS>ATOM
      1 O           5.1350   -1.2857    0.0000 O.3     1  UNL1       -0.3313
      2 O          12.0632    1.7143    0.0000 O.3     1  UNL1       -0.3313
      3 O           6.8671   -1.2857    0.0000 O.3     1  UNL1       -0.4532
      4 O           5.1350   -4.2857    0.0000 O.3     1  UNL1       -0.3864
      5 O          11.1972    0.2143    0.0000 O.3     1  UNL1       -0.4570
      6 O           3.4030   -3.2857    0.0000 O.3     1  UNL1       -0.3865
      7 O           6.8671   -3.2857    0.0000 O.3     1  UNL1       -0.3829
      8 O           9.4651    3.2143    0.0000 O.3     1  UNL1       -0.3864
      9 O          11.1972    4.2143    0.0000 O.3     1  UNL1       -0.3865
     10 O           9.4651    1.2143    0.0000 O.3     1  UNL1       -0.3829
     11 O           2.5369   -1.7857    0.0000 O.3     1  UNL1       -0.3924
     12 O          13.7953    2.7143    0.0000 O.3     1  UNL1       -0.3924
     13 O           7.7331    1.2143    0.0000 O.2     1  UNL1       -0.4507
     14 O          11.1972   -1.7857    0.0000 O.3     1  UNL1       -0.5009
     15 O           5.1350   -0.2857    0.0000 O.2     1  UNL1       -0.2830
     16 O           9.4651   -2.7857    0.0000 O.3     1  UNL1       -0.5032
     17 O           4.2308    1.2112    0.0000 O.3     1  UNL1       -0.5058
     18 O           5.9889    4.2836    0.0000 O.3     1  UNL1       -0.5065
     19 C           5.1350   -3.2857    0.0000 C.3     1  UNL1        0.1152
     20 C           4.2690   -2.7857    0.0000 C.3     1  UNL1        0.1120
     21 C           6.0010   -2.7857    0.0000 C.3     1  UNL1        0.1454
     22 C          10.3312    2.7143    0.0000 C.3     1  UNL1        0.1152
     23 C          11.1972    3.2143    0.0000 C.3     1  UNL1        0.1120
     24 C           4.2690   -1.7857    0.0000 C.3     1  UNL1        0.1140
     25 C          10.3312    1.7143    0.0000 C.3     1  UNL1        0.1454
     26 C          12.0632    2.7143    0.0000 C.3     1  UNL1        0.1140
     27 C           6.0010   -1.7857    0.0000 C.3     1  UNL1        0.2311
     28 C          11.1972    1.2143    0.0000 C.3     1  UNL1        0.2310
     29 C           3.4030   -1.2857    0.0000 C.3     1  UNL1        0.0731
     30 C          12.9292    3.2143    0.0000 C.3     1  UNL1        0.0731
     31 C           6.8671   -0.2857    0.0000 C.ar    1  UNL1        0.2138
     32 C          10.3312   -0.2857    0.0000 C.ar    1  UNL1        0.1695
     33 C           7.7331    0.2143    0.0000 C.ar    1  UNL1        0.1812
     34 C           8.5991   -0.2857    0.0000 C.ar    1  UNL1        0.0282
     35 C           9.4651    0.2143    0.0000 C.ar    1  UNL1       -0.0052
     36 C           6.0010    0.2143    0.0000 C.ar    1  UNL1        0.2382
     37 C          10.3312   -1.2857    0.0000 C.ar    1  UNL1        0.2010
     38 C           6.0010    1.2143    0.0000 C.ar    1  UNL1        0.1092
     39 C           8.5991   -1.2857    0.0000 C.ar    1  UNL1       -0.0055
     40 C           6.8671    1.7143    0.0000 C.ar    1  UNL1        0.1465
     41 C           9.4651   -1.7857    0.0000 C.ar    1  UNL1        0.1627
     42 C           5.0910    1.7212    0.0000 C.ar    1  UNL1        0.1348
     43 C           6.8831    2.7558    0.0000 C.ar    1  UNL1        0.0231
     44 C           5.0830    2.7628    0.0000 C.ar    1  UNL1        0.0223
     45 C           5.9851    3.2836    0.0000 C.ar    1  UNL1        0.1239
     46 H           4.5981   -3.5957    0.0000 H       1  UNL1        0.0648
     47 H           4.2690   -3.4057    0.0000 H       1  UNL1        0.0647
     48 H           6.0010   -3.4057    0.0000 H       1  UNL1        0.0683
     49 H          10.3312    3.3343    0.0000 H       1  UNL1        0.0648
     50 H          11.7341    3.5243    0.0000 H       1  UNL1        0.0647
     51 H           4.2690   -1.1657    0.0000 H       1  UNL1        0.0647
     52 H           9.7942    2.0243    0.0000 H       1  UNL1        0.0683
     53 H          12.6002    2.4043    0.0000 H       1  UNL1        0.0647
     54 H           6.0010   -1.1657    0.0000 H       1  UNL1        0.1084
     55 H          10.6603    0.9043    0.0000 H       1  UNL1        0.1084
     56 H           3.8015   -0.8107    0.0000 H       1  UNL1        0.0584
     57 H           3.0044   -0.8107    0.0000 H       1  UNL1        0.0584
     58 H          13.3278    3.6893    0.0000 H       1  UNL1        0.0584
     59 H          12.5307    3.6893    0.0000 H       1  UNL1        0.0584
     60 H           4.5981   -4.5957    0.0000 H       1  UNL1        0.2100
     61 H           3.4030   -3.9057    0.0000 H       1  UNL1        0.2100
     62 H           6.8671   -3.9057    0.0000 H       1  UNL1        0.2102
     63 H           9.4651    3.8343    0.0000 H       1  UNL1        0.2100
     64 H          11.7341    4.5243    0.0000 H       1  UNL1        0.2100
     65 H           8.9282    1.5243    0.0000 H       1  UNL1        0.2102
     66 H           2.0000   -1.4757    0.0000 H       1  UNL1        0.2095
     67 H           9.4651    0.8343    0.0000 H       1  UNL1        0.0662
     68 H          14.3322    3.0243    0.0000 H       1  UNL1        0.2095
     69 H           8.0622   -1.5957    0.0000 H       1  UNL1        0.0662
     70 H           7.4236    3.0596    0.0000 H       1  UNL1        0.0691
     71 H           4.5449    3.0707    0.0000 H       1  UNL1        0.0691
     72 H          11.1972   -2.4057    0.0000 H       1  UNL1        0.2924
     73 H           8.9282   -3.0957    0.0000 H       1  UNL1        0.2923
     74 H           3.6904    1.5150    0.0000 H       1  UNL1        0.2922
     75 H           5.4532    4.5957    0.0000 H       1  UNL1        0.2921
@<TRIPOS>BOND
     1     1    24    1
     2     1    27    1
     3     2    26    1
     4     2    28    1
     5    27     3    1
     6     3    31    1
     7     4    19    1
     8     4    60    1
     9    28     5    1
    10     5    32    1
    11    20     6    1
    12     6    61    1
    13     7    21    1
    14     7    62    1
    15    22     8    1
    16     8    63    1
    17    23     9    1
    18     9    64    1
    19    10    25    1
    20    10    65    1
    21    11    29    1
    22    11    66    1
    23    12    30    1
    24    12    68    1
    25    13    33   ar
    26    13    40   ar
    27    14    37    1
    28    14    72    1
    29    15    36    2
    30    16    41    1
    31    16    73    1
    32    17    42    1
    33    17    74    1
    34    18    45    1
    35    18    75    1
    36    19    20    1
    37    19    21    1
    38    19    46    1
    39    20    24    1
    40    20    47    1
    41    21    27    1
    42    21    48    1
    43    22    23    1
    44    22    25    1
    45    22    49    1
    46    23    26    1
    47    23    50    1
    48    24    29    1
    49    24    51    1
    50    25    28    1
    51    25    52    1
    52    26    30    1
    53    26    53    1
    54    27    54    1
    55    28    55    1
    56    29    56    1
    57    29    57    1
    58    30    58    1
    59    30    59    1
    60    31    33   ar
    61    31    36   ar
    62    32    35   ar
    63    32    37   ar
    64    33    34    1
    65    34    35   ar
    66    34    39   ar
    67    35    67    1
    68    36    38   ar
    69    37    41   ar
    70    38    40   ar
    71    38    42   ar
    72    39    41   ar
    73    39    69    1
    74    40    43   ar
    75    42    44   ar
    76    43    45   ar
    77    43    70    1
    78    44    45   ar
    79    44    71    1
