@<TRIPOS>MOLECULE
IMPHY000390
 69 73 0 0 0
SMALL
GASTEIGER

@<TRIPOS>ATOM
      1 O           7.3380    2.4227    0.0000 O.3     1  UNL1       -0.3673
      2 O           7.9657   -0.4241    0.0000 O.3     1  UNL1       -0.4568
      3 O           8.9022    1.7999    0.0000 O.3     1  UNL1       -0.3843
      4 O           5.3194    3.1263    0.0000 O.3     1  UNL1       -0.3888
      5 O           6.1733   -1.4430    0.0000 O.3     1  UNL1       -0.4540
      6 O           7.0514    4.1263    0.0000 O.3     1  UNL1       -0.3863
      7 O           4.3678    2.6833    0.0000 O.2     1  UNL1       -0.2941
      8 O           2.5405    1.6656    0.0000 O.3     1  UNL1       -0.3843
      9 O           9.7272   -0.3767    0.0000 O.2     1  UNL1       -0.2507
     10 O           7.9053   -1.4363    0.0000 O.2     1  UNL1       -0.2453
     11 C           7.0514    1.1263    0.0000 C.3     1  UNL1        0.0726
     12 C           6.1854    1.6263    0.0000 C.3     1  UNL1        0.0141
     13 C           7.9174    1.6263    0.0000 C.3     1  UNL1        0.1186
     14 C           5.2754    1.1194    0.0000 C.3     1  UNL1        0.0413
     15 C           7.9174    2.6263    0.0000 C.3     1  UNL1        0.1245
     16 C           7.0675    0.0848    0.0000 C.3     1  UNL1        0.1508
     17 C           5.2674    0.0778    0.0000 C.3     1  UNL1        0.0149
     18 C           6.1854    2.6263    0.0000 C.3     1  UNL1        0.0883
     19 C           6.9380    1.7299    0.0000 C.3     1  UNL1        0.0609
     20 C           6.1694   -0.4430    0.0000 C.3     1  UNL1        0.1447
     21 C           7.0514    3.1263    0.0000 C.3     1  UNL1        0.1126
     22 C           8.8272    1.1383    0.0000 C.3     1  UNL1        0.0772
     23 C           4.3319   -0.4719    0.0000 C.3     1  UNL1       -0.0339
     24 C           4.3486    1.6835    0.0000 C.2     1  UNL1        0.1681
     25 C           4.9406    2.0617    0.0000 C.3     1  UNL1       -0.0520
     26 C           8.4174    3.4923    0.0000 C.3     1  UNL1       -0.0305
     27 C           3.3923    0.0706    0.0000 C.3     1  UNL1       -0.0169
     28 C           3.4007    1.1556    0.0000 C.3     1  UNL1        0.1138
     29 C           8.8515    0.1061    0.0000 C.2     1  UNL1        0.3104
     30 C           4.3358   -1.4719    0.0000 C.3     1  UNL1       -0.0619
     31 C           7.0412   -1.9396    0.0000 C.2     1  UNL1        0.3349
     32 C           7.0451   -2.9396    0.0000 C.2     1  UNL1        0.0293
     33 C           6.1810   -3.4430    0.0000 C.3     1  UNL1       -0.0333
     34 C           7.9130   -3.4363    0.0000 C.2     1  UNL1       -0.0774
     35 C           7.9169   -4.4363    0.0000 C.3     1  UNL1       -0.0461
     36 H           5.4493    2.0513    0.0000 H       1  UNL1        0.0344
     37 H           7.0742   -0.7652    0.0000 H       1  UNL1        0.0779
     38 H           5.2706   -0.7722    0.0000 H       1  UNL1        0.0350
     39 H           6.1854    3.2463    0.0000 H       1  UNL1        0.0623
     40 H           6.5109    2.1792    0.0000 H       1  UNL1        0.0568
     41 H           6.3861    1.4475    0.0000 H       1  UNL1        0.0568
     42 H           6.7082   -0.7499    0.0000 H       1  UNL1        0.0775
     43 H           7.5884    3.4363    0.0000 H       1  UNL1        0.0649
     44 H           9.4404    1.0466    0.0000 H       1  UNL1        0.0407
     45 H           9.0225    1.7267    0.0000 H       1  UNL1        0.0407
     46 H           4.8707   -0.7788    0.0000 H       1  UNL1        0.0303
     47 H           5.5248    2.2693    0.0000 H       1  UNL1        0.0239
     48 H           4.7331    2.6460    0.0000 H       1  UNL1        0.0239
     49 H           4.3564    1.8542    0.0000 H       1  UNL1        0.0239
     50 H           8.9544    3.1823    0.0000 H       1  UNL1        0.0259
     51 H           8.7274    4.0292    0.0000 H       1  UNL1        0.0259
     52 H           7.8805    3.8023    0.0000 H       1  UNL1        0.0259
     53 H           2.7823    0.1814    0.0000 H       1  UNL1        0.0297
     54 H           3.1788   -0.5115    0.0000 H       1  UNL1        0.0297
     55 H           3.4090    1.7755    0.0000 H       1  UNL1        0.0673
     56 H           9.1143    2.3825    0.0000 H       1  UNL1        0.2103
     57 H           5.3194    3.7463    0.0000 H       1  UNL1        0.2099
     58 H           3.7158   -1.4743    0.0000 H       1  UNL1        0.0233
     59 H           4.3382   -2.0919    0.0000 H       1  UNL1        0.0233
     60 H           4.9558   -1.4695    0.0000 H       1  UNL1        0.0233
     61 H           7.5884    4.4363    0.0000 H       1  UNL1        0.2100
     62 H           2.0000    1.3618    0.0000 H       1  UNL1        0.2104
     63 H           5.8689   -2.9072    0.0000 H       1  UNL1        0.0280
     64 H           5.6453   -3.7550    0.0000 H       1  UNL1        0.0280
     65 H           6.4931   -3.9787    0.0000 H       1  UNL1        0.0280
     66 H           8.4488   -3.1242    0.0000 H       1  UNL1        0.0574
     67 H           7.2969   -4.4387    0.0000 H       1  UNL1        0.0272
     68 H           7.9193   -5.0563    0.0000 H       1  UNL1        0.0272
     69 H           8.5369   -4.4339    0.0000 H       1  UNL1        0.0272
@<TRIPOS>BOND
     1     1    15    1
     2     1    19    1
     3     2    16    1
     4     2    29    1
     5    13     3    1
     6     3    56    1
     7    18     4    1
     8     4    57    1
     9    20     5    1
    10     5    31    1
    11    21     6    1
    12     6    61    1
    13     7    24    2
    14    28     8    1
    15     8    62    1
    16     9    29    2
    17    10    31    2
    18    11    12    1
    19    11    13    1
    20    11    16    1
    21    11    19    1
    22    12    14    1
    23    12    18    1
    24    12    36    1
    25    13    15    1
    26    13    22    1
    27    14    17    1
    28    14    24    1
    29    14    25    1
    30    15    21    1
    31    15    26    1
    32    16    20    1
    33    16    37    1
    34    17    20    1
    35    17    23    1
    36    17    38    1
    37    18    21    1
    38    18    39    1
    39    19    40    1
    40    19    41    1
    41    20    42    1
    42    21    43    1
    43    22    29    1
    44    22    44    1
    45    22    45    1
    46    23    27    1
    47    23    30    1
    48    23    46    1
    49    24    28    1
    50    25    47    1
    51    25    48    1
    52    25    49    1
    53    26    50    1
    54    26    51    1
    55    26    52    1
    56    27    28    1
    57    27    53    1
    58    27    54    1
    59    28    55    1
    60    30    58    1
    61    30    59    1
    62    30    60    1
    63    31    32    1
    64    32    33    1
    65    32    34    2
    66    33    63    1
    67    33    64    1
    68    33    65    1
    69    34    35    1
    70    34    66    1
    71    35    67    1
    72    35    68    1
    73    35    69    1
