@<TRIPOS>MOLECULE
IMPHY000870
 45 49 0 0 0
SMALL
GASTEIGER

@<TRIPOS>ATOM
      1 O           4.5732   -3.4852    0.0000 O.3     1  UNL1       -0.4523
      2 O           3.1278   -4.3346    0.0000 O.3     1  UNL1       -0.4526
      3 O           3.5502    4.3267    0.0000 O.3     1  UNL1       -0.4526
      4 O           2.0983    3.4885    0.0000 O.3     1  UNL1       -0.4526
      5 O           3.7841   -0.7548    0.0000 O.2     1  UNL1       -0.2917
      6 N           4.6501   -0.2548    0.0000 N.3     1  UNL1       -0.3007
      7 C           4.6501   -1.2548    0.0000 C.3     1  UNL1        0.0276
      8 C           3.7841   -1.7548    0.0000 C.ar    1  UNL1        0.0156
      9 C           5.5161    0.2452    0.0000 C.3     1  UNL1        0.0029
     10 C           5.5161    1.2452    0.0000 C.3     1  UNL1       -0.0141
     11 C           2.9180   -1.2548    0.0000 C.ar    1  UNL1       -0.0318
     12 C           4.6501    1.7452    0.0000 C.ar    1  UNL1       -0.0320
     13 C           2.9180   -0.2548    0.0000 C.3     1  UNL1        0.0361
     14 C           3.7841    1.2452    0.0000 C.ar    1  UNL1        0.0246
     15 C           3.8001   -2.7963    0.0000 C.ar    1  UNL1        0.1709
     16 C           3.7841    0.2452    0.0000 C.2     1  UNL1        0.1678
     17 C           2.9021   -3.3241    0.0000 C.ar    1  UNL1        0.1666
     18 C           4.6661    2.7867    0.0000 C.ar    1  UNL1       -0.0123
     19 C           2.0080   -1.7617    0.0000 C.ar    1  UNL1       -0.0542
     20 C           4.6501    0.7452    0.0000 C.3     1  UNL1       -0.0124
     21 C           2.8741    1.7520    0.0000 C.ar    1  UNL1       -0.0054
     22 C           3.7681    3.3144    0.0000 C.ar    1  UNL1        0.1665
     23 C           2.8660    2.7936    0.0000 C.ar    1  UNL1        0.1669
     24 C           2.0000   -2.8033    0.0000 C.ar    1  UNL1       -0.0159
     25 C           4.1585   -4.4340    0.0000 C.3     1  UNL1        0.2332
     26 C           2.5203    4.4340    0.0000 C.3     1  UNL1        0.2332
     27 H           4.8621   -1.8374    0.0000 H       1  UNL1        0.0477
     28 H           5.2607   -1.1472    0.0000 H       1  UNL1        0.0477
     29 H           5.7282   -0.3374    0.0000 H       1  UNL1        0.0430
     30 H           6.1267    0.3528    0.0000 H       1  UNL1        0.0430
     31 H           6.1267    1.1375    0.0000 H       1  UNL1        0.0326
     32 H           5.7282    1.8278    0.0000 H       1  UNL1        0.0326
     33 H           2.7060    0.3278    0.0000 H       1  UNL1        0.0394
     34 H           2.3074   -0.3625    0.0000 H       1  UNL1        0.0394
     35 H           5.2066    3.0904    0.0000 H       1  UNL1        0.0658
     36 H           1.4747   -1.4455    0.0000 H       1  UNL1        0.0622
     37 H           5.2701    0.7452    0.0000 H       1  UNL1        0.0391
     38 H           4.6501    1.3652    0.0000 H       1  UNL1        0.0391
     39 H           4.0301    0.7452    0.0000 H       1  UNL1        0.0391
     40 H           2.3407    1.4358    0.0000 H       1  UNL1        0.0662
     41 H           1.4619   -3.1112    0.0000 H       1  UNL1        0.0655
     42 H           4.0344   -5.0415    0.0000 H       1  UNL1        0.1166
     43 H           4.7495   -4.6213    0.0000 H       1  UNL1        0.1166
     44 H           2.6490    5.0405    0.0000 H       1  UNL1        0.1166
     45 H           1.9307    4.6258    0.0000 H       1  UNL1        0.1166
@<TRIPOS>BOND
     1     1    15    1
     2     1    25    1
     3     2    17    1
     4     2    25    1
     5     3    22    1
     6     3    26    1
     7     4    23    1
     8     4    26    1
     9     5    16    2
    10     6     7    1
    11     6     9    1
    12     6    20    1
    13     7     8    1
    14     7    27    1
    15     7    28    1
    16     8    11   ar
    17     8    15   ar
    18     9    10    1
    19     9    29    1
    20     9    30    1
    21    10    12    1
    22    10    31    1
    23    10    32    1
    24    11    13    1
    25    11    19   ar
    26    12    14   ar
    27    12    18   ar
    28    13    16    1
    29    13    33    1
    30    13    34    1
    31    14    16    1
    32    14    21   ar
    33    15    17   ar
    34    17    24   ar
    35    18    22   ar
    36    18    35    1
    37    19    24   ar
    38    19    36    1
    39    20    37    1
    40    20    38    1
    41    20    39    1
    42    21    23   ar
    43    21    40    1
    44    22    23   ar
    45    24    41    1
    46    25    42    1
    47    25    43    1
    48    26    44    1
    49    26    45    1
