@<TRIPOS>MOLECULE
IMPHY016697
 33 33 0 0 0
SMALL
GASTEIGER

@<TRIPOS>ATOM
      1 O           3.7320    0.7500    0.0000 O.3     1  UNL1       -0.4644
      2 O           4.5981   -0.7500    0.0000 O.2     1  UNL1       -0.2505
      3 C           5.4641    2.7500    0.0000 C.3     1  UNL1       -0.0436
      4 C           4.5981    2.2500    0.0000 C.3     1  UNL1       -0.0162
      5 C           4.5981    1.2500    0.0000 C.3     1  UNL1        0.0927
      6 C           5.4641    3.7500    0.0000 C.3     1  UNL1       -0.0626
      7 C           6.3301    2.2500    0.0000 C.3     1  UNL1       -0.0626
      8 C           2.8660   -0.7500    0.0000 C.3     1  UNL1        0.0700
      9 C           3.7320   -0.2500    0.0000 C.2     1  UNL1        0.3114
     10 C           2.8660   -1.7500    0.0000 C.ar    1  UNL1       -0.0368
     11 C           2.0000   -2.2500    0.0000 C.ar    1  UNL1       -0.0581
     12 C           3.7320   -2.2500    0.0000 C.ar    1  UNL1       -0.0581
     13 C           2.0000   -3.2500    0.0000 C.ar    1  UNL1       -0.0615
     14 C           3.7320   -3.2500    0.0000 C.ar    1  UNL1       -0.0615
     15 C           2.8660   -3.7500    0.0000 C.ar    1  UNL1       -0.0617
     16 H           5.4641    2.1300    0.0000 H       1  UNL1        0.0297
     17 H           4.3860    2.8326    0.0000 H       1  UNL1        0.0300
     18 H           3.9875    2.1423    0.0000 H       1  UNL1        0.0300
     19 H           4.8101    0.6674    0.0000 H       1  UNL1        0.0697
     20 H           5.2087    1.3577    0.0000 H       1  UNL1        0.0697
     21 H           6.0841    3.7500    0.0000 H       1  UNL1        0.0232
     22 H           5.4641    4.3700    0.0000 H       1  UNL1        0.0232
     23 H           4.8441    3.7500    0.0000 H       1  UNL1        0.0232
     24 H           6.0201    1.7131    0.0000 H       1  UNL1        0.0232
     25 H           6.8671    1.9400    0.0000 H       1  UNL1        0.0232
     26 H           6.6401    2.7869    0.0000 H       1  UNL1        0.0232
     27 H           2.6540   -0.1674    0.0000 H       1  UNL1        0.0426
     28 H           2.2554   -0.8577    0.0000 H       1  UNL1        0.0426
     29 H           1.4631   -1.9400    0.0000 H       1  UNL1        0.0620
     30 H           4.2690   -1.9400    0.0000 H       1  UNL1        0.0620
     31 H           1.4631   -3.5600    0.0000 H       1  UNL1        0.0618
     32 H           4.2690   -3.5600    0.0000 H       1  UNL1        0.0618
     33 H           2.8660   -4.3700    0.0000 H       1  UNL1        0.0618
@<TRIPOS>BOND
     1     1     5    1
     2     1     9    1
     3     2     9    2
     4     3     4    1
     5     3     6    1
     6     3     7    1
     7     3    16    1
     8     4     5    1
     9     4    17    1
    10     4    18    1
    11     5    19    1
    12     5    20    1
    13     6    21    1
    14     6    22    1
    15     6    23    1
    16     7    24    1
    17     7    25    1
    18     7    26    1
    19     8     9    1
    20     8    10    1
    21     8    27    1
    22     8    28    1
    23    10    11   ar
    24    10    12   ar
    25    11    13   ar
    26    11    29    1
    27    12    14   ar
    28    12    30    1
    29    13    15   ar
    30    13    31    1
    31    14    15   ar
    32    14    32    1
    33    15    33    1
