@<TRIPOS>MOLECULE
IMPHY002262
 87 90 0 0 0
SMALL
GASTEIGER

@<TRIPOS>ATOM
      1 O           2.5357   -3.3289    0.0000 O.3     1  UNL1       -0.3912
      2 O          10.1362    0.6680    0.0000 O.3     1  UNL1       -0.3886
      3 C           7.0628   -1.7766    0.0000 C.3     1  UNL1       -0.0231
      4 C           7.9288   -1.2766    0.0000 C.3     1  UNL1       -0.0232
      5 C           6.1968   -1.2766    0.0000 C.3     1  UNL1       -0.0294
      6 C           5.2868   -1.7834    0.0000 C.3     1  UNL1       -0.0252
      7 C           7.9288   -0.2766    0.0000 C.3     1  UNL1       -0.0297
      8 C           5.2787   -2.8250    0.0000 C.3     1  UNL1       -0.0278
      9 C           7.0789   -2.8181    0.0000 C.3     1  UNL1       -0.0466
     10 C           6.1968   -0.2766    0.0000 C.3     1  UNL1       -0.0489
     11 C           8.8750    0.0282    0.0000 C.3     1  UNL1       -0.0090
     12 C           8.8750   -1.5813    0.0000 C.3     1  UNL1       -0.0465
     13 C           7.0628    0.2234    0.0000 C.3     1  UNL1       -0.0491
     14 C           6.1808   -3.3458    0.0000 C.3     1  UNL1       -0.0486
     15 C           4.3433   -3.3747    0.0000 C.3     1  UNL1       -0.0056
     16 C           9.4586   -0.7766    0.0000 C.3     1  UNL1       -0.0468
     17 C           4.3599   -1.2193    0.0000 C.3     1  UNL1       -0.0447
     18 C           7.7056   -2.5426    0.0000 C.3     1  UNL1       -0.0588
     19 C           8.2709   -2.2162    0.0000 C.3     1  UNL1       -0.0588
     20 C           5.2945   -0.7834    0.0000 C.3     1  UNL1       -0.0590
     21 C           3.4037   -2.8322    0.0000 C.3     1  UNL1        0.0606
     22 C           9.1857    0.9787    0.0000 C.3     1  UNL1        0.0664
     23 C           3.4120   -1.7473    0.0000 C.3     1  UNL1       -0.0258
     24 C           3.8467   -4.2427    0.0000 C.3     1  UNL1       -0.0572
     25 C           4.8466   -4.2388    0.0000 C.3     1  UNL1       -0.0572
     26 C           9.4964    1.9292    0.0000 C.3     1  UNL1       -0.0235
     27 C           8.2352    1.2894    0.0000 C.3     1  UNL1       -0.0358
     28 C          10.4749    2.1354    0.0000 C.3     1  UNL1       -0.0442
     29 C          10.7855    3.0859    0.0000 C.3     1  UNL1       -0.0232
     30 C          10.1177    3.8302    0.0000 C.3     1  UNL1       -0.0587
     31 C          11.7640    3.2922    0.0000 C.2     1  UNL1       -0.0769
     32 C          12.0747    4.2427    0.0000 C.3     1  UNL1       -0.0438
     33 C          12.4319    2.5479    0.0000 C.2     1  UNL1       -0.0995
     34 H           6.9329   -0.8516    0.0000 H       1  UNL1        0.0312
     35 H           8.0188    0.5687    0.0000 H       1  UNL1        0.0310
     36 H           5.2820   -3.6750    0.0000 H       1  UNL1        0.0312
     37 H           7.2969   -3.3985    0.0000 H       1  UNL1        0.0271
     38 H           7.6880   -2.7026    0.0000 H       1  UNL1        0.0271
     39 H           5.9847    0.3060    0.0000 H       1  UNL1        0.0268
     40 H           5.5862   -0.3842    0.0000 H       1  UNL1        0.0268
     41 H           9.7148    0.1600    0.0000 H       1  UNL1        0.0331
     42 H           8.6240   -2.1482    0.0000 H       1  UNL1        0.0271
     43 H           9.4124   -1.8905    0.0000 H       1  UNL1        0.0271
     44 H           7.4613    0.6984    0.0000 H       1  UNL1        0.0268
     45 H           6.6643    0.6984    0.0000 H       1  UNL1        0.0268
     46 H           5.7835   -3.8218    0.0000 H       1  UNL1        0.0268
     47 H           6.5818   -3.8187    0.0000 H       1  UNL1        0.0268
     48 H           9.9195   -1.1913    0.0000 H       1  UNL1        0.0269
     49 H           9.9195   -0.3618    0.0000 H       1  UNL1        0.0269
     50 H           4.7681   -0.7527    0.0000 H       1  UNL1        0.0271
     51 H           3.9700   -0.7373    0.0000 H       1  UNL1        0.0271
     52 H           7.2306   -2.9411    0.0000 H       1  UNL1        0.0235
     53 H           8.1041   -3.0176    0.0000 H       1  UNL1        0.0235
     54 H           8.1805   -2.1441    0.0000 H       1  UNL1        0.0235
     55 H           7.6884   -2.4283    0.0000 H       1  UNL1        0.0235
     56 H           8.4830   -2.7988    0.0000 H       1  UNL1        0.0235
     57 H           8.8535   -2.0041    0.0000 H       1  UNL1        0.0235
     58 H           5.9145   -0.7882    0.0000 H       1  UNL1        0.0235
     59 H           5.2993   -0.1635    0.0000 H       1  UNL1        0.0235
     60 H           4.6745   -0.7787    0.0000 H       1  UNL1        0.0235
     61 H           3.4025   -3.4522    0.0000 H       1  UNL1        0.0599
     62 H           3.2075   -1.1620    0.0000 H       1  UNL1        0.0290
     63 H           2.8004   -1.8487    0.0000 H       1  UNL1        0.0290
     64 H           3.3085   -3.9348    0.0000 H       1  UNL1        0.0236
     65 H           4.3109   -4.5509    0.0000 H       1  UNL1        0.0236
     66 H           5.1587   -4.7746    0.0000 H       1  UNL1        0.0236
     67 H           5.3824   -3.9268    0.0000 H       1  UNL1        0.0236
     68 H           3.5387   -4.7808    0.0000 H       1  UNL1        0.0236
     69 H           4.3848   -4.5506    0.0000 H       1  UNL1        0.0236
     70 H           9.4758    2.5489    0.0000 H       1  UNL1        0.0293
     71 H           8.8826    2.0166    0.0000 H       1  UNL1        0.0293
     72 H           8.4278    1.8787    0.0000 H       1  UNL1        0.0257
     73 H           7.6459    1.4820    0.0000 H       1  UNL1        0.0257
     74 H           8.0426    0.7000    0.0000 H       1  UNL1        0.0257
     75 H           2.0000   -3.0168    0.0000 H       1  UNL1        0.2098
     76 H          10.5977    1.0821    0.0000 H       1  UNL1        0.2102
     77 H          10.4954    1.5158    0.0000 H       1  UNL1        0.0272
     78 H          11.0887    2.0481    0.0000 H       1  UNL1        0.0272
     79 H          10.9781    3.6753    0.0000 H       1  UNL1        0.0343
     80 H          10.5792    4.2443    0.0000 H       1  UNL1        0.0235
     81 H           9.7036    4.2917    0.0000 H       1  UNL1        0.0235
     82 H           9.6562    3.4162    0.0000 H       1  UNL1        0.0235
     83 H          12.6640    4.0501    0.0000 H       1  UNL1        0.0274
     84 H          12.2673    4.8320    0.0000 H       1  UNL1        0.0274
     85 H          11.4854    4.4353    0.0000 H       1  UNL1        0.0274
     86 H          12.2393    1.9585    0.0000 H       1  UNL1        0.0534
     87 H          13.0386    2.6757    0.0000 H       1  UNL1        0.0534
@<TRIPOS>BOND
     1    21     1    1
     2     1    75    1
     3    22     2    1
     4     2    76    1
     5     3     4    1
     6     3     5    1
     7     3     9    1
     8     3    18    1
     9     4     7    1
    10     4    12    1
    11     4    19    1
    12     5     6    1
    13     5    10    1
    14     5    34    1
    15     6     8    1
    16     6    17    1
    17     6    20    1
    18     7    11    1
    19     7    13    1
    20     7    35    1
    21     8    14    1
    22     8    15    1
    23     8    36    1
    24     9    14    1
    25     9    37    1
    26     9    38    1
    27    10    13    1
    28    10    39    1
    29    10    40    1
    30    11    16    1
    31    11    22    1
    32    11    41    1
    33    12    16    1
    34    12    42    1
    35    12    43    1
    36    13    44    1
    37    13    45    1
    38    14    46    1
    39    14    47    1
    40    15    21    1
    41    15    24    1
    42    15    25    1
    43    16    48    1
    44    16    49    1
    45    17    23    1
    46    17    50    1
    47    17    51    1
    48    18    52    1
    49    18    53    1
    50    18    54    1
    51    19    55    1
    52    19    56    1
    53    19    57    1
    54    20    58    1
    55    20    59    1
    56    20    60    1
    57    21    23    1
    58    21    61    1
    59    22    26    1
    60    22    27    1
    61    23    62    1
    62    23    63    1
    63    24    64    1
    64    24    68    1
    65    24    69    1
    66    25    65    1
    67    25    66    1
    68    25    67    1
    69    26    28    1
    70    26    70    1
    71    26    71    1
    72    27    72    1
    73    27    73    1
    74    27    74    1
    75    28    29    1
    76    28    77    1
    77    28    78    1
    78    29    30    1
    79    29    31    1
    80    29    79    1
    81    30    80    1
    82    30    81    1
    83    30    82    1
    84    31    32    1
    85    31    33    2
    86    32    83    1
    87    32    84    1
    88    32    85    1
    89    33    86    1
    90    33    87    1
