@<TRIPOS>MOLECULE
IMPHY009183
 75 79 0 0 0
SMALL
GASTEIGER

@<TRIPOS>ATOM
      1 O           6.5422   -2.2949    0.0000 O.3     1  UNL1       -0.4536
      2 O           5.5972   -1.8334    0.0000 O.3     1  UNL1       -0.4534
      3 O           6.3243    0.7733    0.0000 O.3     1  UNL1       -0.3870
      4 O           7.5289   -3.7185    0.0000 O.2     1  UNL1       -0.2511
      5 O           7.4262    3.8612    0.0000 O.2     1  UNL1       -0.2921
      6 O          10.5195    2.4924    0.0000 O.3     1  UNL1       -0.3907
      7 O           4.6270   -0.3986    0.0000 O.2     1  UNL1       -0.2449
      8 N           2.8993   -0.5214    0.0000 N.pl3   1  UNL1       -0.3463
      9 C           8.2201   -1.1319    0.0000 C.3     1  UNL1        0.0209
     10 C           7.3640   -1.7253    0.0000 C.3     1  UNL1        0.1598
     11 C           8.3063   -2.1704    0.0000 C.3     1  UNL1        0.0161
     12 C           8.1263   -0.0945    0.0000 C.3     1  UNL1        0.0144
     13 C           6.4256   -1.2733    0.0000 C.3     1  UNL1        0.1488
     14 C           7.2253    0.3394    0.0000 C.3     1  UNL1        0.0856
     15 C           6.3557   -0.2340    0.0000 C.3     1  UNL1        0.0271
     16 C           9.3029   -2.0880    0.0000 C.3     1  UNL1       -0.0556
     17 C           7.8794   -3.0747    0.0000 C.3     1  UNL1       -0.0556
     18 C           7.0028    1.3143    0.0000 C.3     1  UNL1        0.0176
     19 C           9.0272    0.3394    0.0000 C.2     1  UNL1       -0.0763
     20 C           7.6263    2.0962    0.0000 C.3     1  UNL1        0.0344
     21 C           5.3577   -0.2972    0.0000 C.3     1  UNL1       -0.0562
     22 C           9.2498    1.3143    0.0000 C.2     1  UNL1       -0.0474
     23 C           8.6263    2.0962    0.0000 C.3     1  UNL1       -0.0191
     24 C           6.0730    1.6660    0.0000 C.2     1  UNL1       -0.0713
     25 C           6.6246   -3.2915    0.0000 C.2     1  UNL1        0.3046
     26 C           7.0765    2.9244    0.0000 C.2     1  UNL1        0.1627
     27 C           6.1185    2.6591    0.0000 C.2     1  UNL1       -0.0113
     28 C           4.6979   -1.3961    0.0000 C.2     1  UNL1        0.3414
     29 C          10.2247    1.5368    0.0000 C.3     1  UNL1        0.0653
     30 C           5.8027   -3.8612    0.0000 C.3     1  UNL1        0.0333
     31 C           5.3366    3.2826    0.0000 C.3     1  UNL1       -0.0367
     32 C           3.8695   -1.9562    0.0000 C.ar    1  UNL1        0.0797
     33 C           2.9702   -1.5189    0.0000 C.ar    1  UNL1        0.0410
     34 C           3.9404   -2.9537    0.0000 C.ar    1  UNL1       -0.0460
     35 C           2.1418   -2.0790    0.0000 C.ar    1  UNL1       -0.0401
     36 C           3.1120   -3.5138    0.0000 C.ar    1  UNL1       -0.0609
     37 C           2.2127   -3.0765    0.0000 C.ar    1  UNL1       -0.0600
     38 C           2.0000   -0.0840    0.0000 C.3     1  UNL1       -0.0024
     39 H           9.0670   -1.0584    0.0000 H       1  UNL1        0.0354
     40 H           8.8657   -0.5138    0.0000 H       1  UNL1        0.0375
     41 H           5.8685   -1.0011    0.0000 H       1  UNL1        0.0778
     42 H           6.1589    0.3539    0.0000 H       1  UNL1        0.0363
     43 H           9.3540   -2.7059    0.0000 H       1  UNL1        0.0236
     44 H           9.9208   -2.0369    0.0000 H       1  UNL1        0.0236
     45 H           9.2518   -1.4701    0.0000 H       1  UNL1        0.0236
     46 H           7.3187   -2.8100    0.0000 H       1  UNL1        0.0236
     47 H           7.6147   -3.6354    0.0000 H       1  UNL1        0.0236
     48 H           8.4400   -3.3394    0.0000 H       1  UNL1        0.0236
     49 H           7.8315    1.1252    0.0000 H       1  UNL1        0.0378
     50 H           9.5120   -0.0472    0.0000 H       1  UNL1        0.0576
     51 H           8.0281    2.8452    0.0000 H       1  UNL1        0.0390
     52 H           5.3186    0.3215    0.0000 H       1  UNL1        0.0234
     53 H           4.7390   -0.3364    0.0000 H       1  UNL1        0.0234
     54 H           5.3969   -0.9160    0.0000 H       1  UNL1        0.0234
     55 H           5.7061    0.7270    0.0000 H       1  UNL1        0.2102
     56 H           9.1849    2.3652    0.0000 H       1  UNL1        0.0318
     57 H           8.4883    2.7006    0.0000 H       1  UNL1        0.0318
     58 H           5.5550    1.3254    0.0000 H       1  UNL1        0.0580
     59 H          10.2556    0.9176    0.0000 H       1  UNL1        0.0604
     60 H          10.8399    1.4598    0.0000 H       1  UNL1        0.0604
     61 H           5.4495   -3.3516    0.0000 H       1  UNL1        0.0342
     62 H           5.2932   -4.2144    0.0000 H       1  UNL1        0.0342
     63 H           6.1559   -4.3708    0.0000 H       1  UNL1        0.0342
     64 H           5.7232    3.7673    0.0000 H       1  UNL1        0.0278
     65 H           4.8519    3.6691    0.0000 H       1  UNL1        0.0278
     66 H           4.9501    2.7978    0.0000 H       1  UNL1        0.0278
     67 H          11.1239    2.6304    0.0000 H       1  UNL1        0.2098
     68 H           4.4979   -3.2249    0.0000 H       1  UNL1        0.0626
     69 H           1.5842   -1.8078    0.0000 H       1  UNL1        0.0636
     70 H           3.1559   -4.1323    0.0000 H       1  UNL1        0.0618
     71 H           3.4129   -0.1741    0.0000 H       1  UNL1        0.1458
     72 H           1.6990   -3.4238    0.0000 H       1  UNL1        0.0618
     73 H           2.2712    0.4735    0.0000 H       1  UNL1        0.0425
     74 H           1.4424    0.1871    0.0000 H       1  UNL1        0.0425
     75 H           1.7288   -0.6416    0.0000 H       1  UNL1        0.0425
@<TRIPOS>BOND
     1    10     1    1
     2     1    25    1
     3    13     2    1
     4     2    28    1
     5    14     3    1
     6     3    55    1
     7     4    25    2
     8     5    26    2
     9     6    29    1
    10     6    67    1
    11     7    28    2
    12     8    33    1
    13     8    38    1
    14     8    71    1
    15     9    10    1
    16     9    11    1
    17     9    12    1
    18     9    39    1
    19    10    11    1
    20    10    13    1
    21    11    16    1
    22    11    17    1
    23    12    14    1
    24    12    19    1
    25    12    40    1
    26    13    15    1
    27    13    41    1
    28    14    15    1
    29    14    18    1
    30    15    21    1
    31    15    42    1
    32    16    43    1
    33    16    44    1
    34    16    45    1
    35    17    46    1
    36    17    47    1
    37    17    48    1
    38    18    20    1
    39    18    24    1
    40    18    49    1
    41    19    22    2
    42    19    50    1
    43    20    23    1
    44    20    26    1
    45    20    51    1
    46    21    52    1
    47    21    53    1
    48    21    54    1
    49    22    23    1
    50    22    29    1
    51    23    56    1
    52    23    57    1
    53    24    27    2
    54    24    58    1
    55    25    30    1
    56    26    27    1
    57    27    31    1
    58    28    32    1
    59    29    59    1
    60    29    60    1
    61    30    61    1
    62    30    62    1
    63    30    63    1
    64    31    64    1
    65    31    65    1
    66    31    66    1
    67    32    33   ar
    68    32    34   ar
    69    33    35   ar
    70    34    36   ar
    71    34    68    1
    72    35    37   ar
    73    35    69    1
    74    36    37   ar
    75    36    70    1
    76    37    72    1
    77    38    73    1
    78    38    74    1
    79    38    75    1
