@<TRIPOS>MOLECULE
IMPHY000804
 67 71 0 0 0
SMALL
GASTEIGER

@<TRIPOS>ATOM
      1 O           7.3920   -3.2330    0.0000 O.3     1  UNL1       -0.4773
      2 O           4.6119   -0.0775    0.0000 O.2     1  UNL1       -0.4536
      3 O           5.5098   -4.6536    0.0000 O.3     1  UNL1       -0.5030
      4 O           3.7517   -1.5812    0.0000 O.3     1  UNL1       -0.5056
      5 O           7.2757    1.4471    0.0000 O.2     1  UNL1       -0.2863
      6 O           6.3944    3.0597    0.0000 O.3     1  UNL1       -0.5055
      7 O           2.7796    3.0736    0.0000 O.3     1  UNL1       -0.5062
      8 C           7.8718   -2.3627    0.0000 C.3     1  UNL1        0.1308
      9 C           7.2539   -1.5844    0.0000 C.ar    1  UNL1        0.0075
     10 C           6.3879   -2.0844    0.0000 C.ar    1  UNL1        0.0415
     11 C           6.4040   -3.1259    0.0000 C.ar    1  UNL1        0.1716
     12 C           5.5219   -1.5844    0.0000 C.ar    1  UNL1        0.0709
     13 C           7.2539   -0.5844    0.0000 C.ar    1  UNL1       -0.0397
     14 C           5.5219   -0.5844    0.0000 C.ar    1  UNL1        0.1506
     15 C           6.3879   -0.0844    0.0000 C.ar    1  UNL1        0.0658
     16 C           8.7271   -2.8810    0.0000 C.3     1  UNL1       -0.0209
     17 C           8.6290   -1.7095    0.0000 C.3     1  UNL1       -0.0209
     18 C           5.5059   -3.6536    0.0000 C.ar    1  UNL1        0.1662
     19 C           4.6119   -2.0912    0.0000 C.ar    1  UNL1        0.1353
     20 C           4.6038   -3.1328    0.0000 C.ar    1  UNL1        0.0435
     21 C           6.4040    0.9571    0.0000 C.ar    1  UNL1        0.2037
     22 C           3.7359   -3.6295    0.0000 C.3     1  UNL1       -0.0022
     23 C           5.5059    1.4849    0.0000 C.ar    1  UNL1        0.1063
     24 C           4.6038    0.9641    0.0000 C.ar    1  UNL1        0.1463
     25 C           5.5226    2.5698    0.0000 C.ar    1  UNL1        0.1381
     26 C           3.6560    1.4920    0.0000 C.ar    1  UNL1        0.0234
     27 C           4.5872    3.1195    0.0000 C.ar    1  UNL1        0.0400
     28 C           3.7320   -4.6295    0.0000 C.2     1  UNL1       -0.0807
     29 C           3.6476    2.5770    0.0000 C.ar    1  UNL1        0.1273
     30 C           4.5911    4.1195    0.0000 C.3     1  UNL1       -0.0023
     31 C           2.8641   -5.1261    0.0000 C.2     1  UNL1       -0.0793
     32 C           3.7270    4.6228    0.0000 C.2     1  UNL1       -0.0807
     33 C           2.8602   -6.1261    0.0000 C.3     1  UNL1       -0.0440
     34 C           2.0000   -4.6228    0.0000 C.3     1  UNL1       -0.0440
     35 C           3.7308    5.6228    0.0000 C.2     1  UNL1       -0.0793
     36 C           2.8668    6.1261    0.0000 C.3     1  UNL1       -0.0440
     37 C           4.5988    6.1194    0.0000 C.3     1  UNL1       -0.0440
     38 H           7.7909   -0.2744    0.0000 H       1  UNL1        0.0630
     39 H           9.0340   -2.1789    0.0000 H       1  UNL1        0.0271
     40 H           9.0984   -1.3045    0.0000 H       1  UNL1        0.0271
     41 H           8.2240   -1.2401    0.0000 H       1  UNL1        0.0271
     42 H           8.4058   -3.4112    0.0000 H       1  UNL1        0.0271
     43 H           9.2573   -3.2023    0.0000 H       1  UNL1        0.0271
     44 H           9.0484   -2.3507    0.0000 H       1  UNL1        0.0271
     45 H           3.5261   -3.0461    0.0000 H       1  UNL1        0.0358
     46 H           3.1249   -3.7348    0.0000 H       1  UNL1        0.0358
     47 H           6.0479   -4.9616    0.0000 H       1  UNL1        0.2923
     48 H           3.2112   -1.8850    0.0000 H       1  UNL1        0.2922
     49 H           3.1226    1.1758    0.0000 H       1  UNL1        0.0691
     50 H           4.2678   -4.9415    0.0000 H       1  UNL1        0.0575
     51 H           5.2012    4.0094    0.0000 H       1  UNL1        0.0358
     52 H           4.8054    4.7012    0.0000 H       1  UNL1        0.0358
     53 H           6.4016    3.6797    0.0000 H       1  UNL1        0.2922
     54 H           3.1889    4.3149    0.0000 H       1  UNL1        0.0575
     55 H           2.3121   -4.0871    0.0000 H       1  UNL1        0.0274
     56 H           1.4643   -4.3107    0.0000 H       1  UNL1        0.0274
     57 H           1.6879   -5.1585    0.0000 H       1  UNL1        0.0274
     58 H           2.2402   -6.1237    0.0000 H       1  UNL1        0.0274
     59 H           2.8578   -6.7461    0.0000 H       1  UNL1        0.0274
     60 H           3.4802   -6.1285    0.0000 H       1  UNL1        0.0274
     61 H           2.2439    2.7616    0.0000 H       1  UNL1        0.2921
     62 H           3.1788    6.6619    0.0000 H       1  UNL1        0.0274
     63 H           4.9067    5.5813    0.0000 H       1  UNL1        0.0274
     64 H           5.1369    6.4274    0.0000 H       1  UNL1        0.0274
     65 H           4.2909    6.6576    0.0000 H       1  UNL1        0.0274
     66 H           2.3310    6.4382    0.0000 H       1  UNL1        0.0274
     67 H           2.5547    5.5904    0.0000 H       1  UNL1        0.0274
@<TRIPOS>BOND
     1     1     8    1
     2     1    11    1
     3     2    14   ar
     4     2    24   ar
     5     3    18    1
     6     3    47    1
     7     4    19    1
     8     4    48    1
     9     5    21    2
    10     6    25    1
    11     6    53    1
    12     7    29    1
    13     7    61    1
    14     8     9    1
    15     8    16    1
    16     8    17    1
    17     9    10   ar
    18     9    13   ar
    19    10    11   ar
    20    10    12   ar
    21    11    18   ar
    22    12    14   ar
    23    12    19   ar
    24    13    15   ar
    25    13    38    1
    26    14    15   ar
    27    15    21   ar
    28    16    42    1
    29    16    43    1
    30    16    44    1
    31    17    39    1
    32    17    40    1
    33    17    41    1
    34    18    20   ar
    35    19    20   ar
    36    20    22    1
    37    21    23   ar
    38    22    28    1
    39    22    45    1
    40    22    46    1
    41    23    24   ar
    42    23    25   ar
    43    24    26   ar
    44    25    27   ar
    45    26    29   ar
    46    26    49    1
    47    27    29   ar
    48    27    30    1
    49    28    31    2
    50    28    50    1
    51    30    32    1
    52    30    51    1
    53    30    52    1
    54    31    33    1
    55    31    34    1
    56    32    35    2
    57    32    54    1
    58    33    58    1
    59    33    59    1
    60    33    60    1
    61    34    55    1
    62    34    56    1
    63    34    57    1
    64    35    36    1
    65    35    37    1
    66    36    62    1
    67    36    66    1
    68    36    67    1
    69    37    63    1
    70    37    64    1
    71    37    65    1
