@<TRIPOS>MOLECULE
IMPHY015648
 43 43 0 0 0
SMALL
GASTEIGER

@<TRIPOS>ATOM
      1 O           6.3301    3.7500    0.0000 O.3     1  UNL1       -0.4604
      2 O           5.4641    5.2500    0.0000 O.2     1  UNL1       -0.2512
      3 C           3.7320   -0.7500    0.0000 C.3     1  UNL1       -0.0488
      4 C           3.7320    0.2500    0.0000 C.3     1  UNL1       -0.0493
      5 C           2.8660   -1.2500    0.0000 C.3     1  UNL1       -0.0277
      6 C           4.5981    0.7500    0.0000 C.3     1  UNL1       -0.0344
      7 C           2.8660   -2.2500    0.0000 C.ar    1  UNL1       -0.0473
      8 C           4.5981    1.7500    0.0000 C.2     1  UNL1       -0.0818
      9 C           5.4641    2.2500    0.0000 C.2     1  UNL1       -0.0396
     10 C           2.0000   -2.7500    0.0000 C.ar    1  UNL1       -0.0583
     11 C           3.7320   -2.7500    0.0000 C.ar    1  UNL1       -0.0583
     12 C           2.8660   -4.2500    0.0000 C.ar    1  UNL1       -0.0504
     13 C           2.0000   -3.7500    0.0000 C.ar    1  UNL1       -0.0586
     14 C           3.7320   -3.7500    0.0000 C.ar    1  UNL1       -0.0586
     15 C           5.4641    3.2500    0.0000 C.3     1  UNL1        0.1133
     16 C           6.3301    1.7500    0.0000 C.3     1  UNL1       -0.0406
     17 C           2.8660   -5.2500    0.0000 C.3     1  UNL1       -0.0397
     18 C           6.3301    4.7500    0.0000 C.2     1  UNL1        0.3042
     19 C           7.1962    5.2500    0.0000 C.3     1  UNL1        0.0332
     20 H           3.9441   -1.3326    0.0000 H       1  UNL1        0.0268
     21 H           4.3426   -0.6423    0.0000 H       1  UNL1        0.0268
     22 H           3.5200    0.8326    0.0000 H       1  UNL1        0.0268
     23 H           3.1215    0.1423    0.0000 H       1  UNL1        0.0268
     24 H           2.6540   -0.6674    0.0000 H       1  UNL1        0.0313
     25 H           2.2554   -1.3577    0.0000 H       1  UNL1        0.0313
     26 H           4.8101    0.1674    0.0000 H       1  UNL1        0.0307
     27 H           5.2087    0.8577    0.0000 H       1  UNL1        0.0307
     28 H           4.0611    2.0600    0.0000 H       1  UNL1        0.0573
     29 H           1.4631   -2.4400    0.0000 H       1  UNL1        0.0620
     30 H           4.2690   -2.4400    0.0000 H       1  UNL1        0.0620
     31 H           1.4631   -4.0600    0.0000 H       1  UNL1        0.0620
     32 H           4.2690   -4.0600    0.0000 H       1  UNL1        0.0620
     33 H           5.2520    3.8326    0.0000 H       1  UNL1        0.0745
     34 H           4.8535    3.1423    0.0000 H       1  UNL1        0.0745
     35 H           6.0201    1.2131    0.0000 H       1  UNL1        0.0275
     36 H           6.8671    1.4400    0.0000 H       1  UNL1        0.0275
     37 H           6.6401    2.2869    0.0000 H       1  UNL1        0.0275
     38 H           2.2460   -5.2500    0.0000 H       1  UNL1        0.0278
     39 H           2.8660   -5.8700    0.0000 H       1  UNL1        0.0278
     40 H           3.4860   -5.2500    0.0000 H       1  UNL1        0.0278
     41 H           7.5062    4.7131    0.0000 H       1  UNL1        0.0342
     42 H           7.7331    5.5600    0.0000 H       1  UNL1        0.0342
     43 H           6.8862    5.7869    0.0000 H       1  UNL1        0.0342
@<TRIPOS>BOND
     1     1    15    1
     2     1    18    1
     3     2    18    2
     4     3     4    1
     5     3     5    1
     6     3    20    1
     7     3    21    1
     8     4     6    1
     9     4    22    1
    10     4    23    1
    11     5     7    1
    12     5    24    1
    13     5    25    1
    14     6     8    1
    15     6    26    1
    16     6    27    1
    17     7    10   ar
    18     7    11   ar
    19     8     9    2
    20     8    28    1
    21     9    15    1
    22     9    16    1
    23    10    13   ar
    24    10    29    1
    25    11    14   ar
    26    11    30    1
    27    12    13   ar
    28    12    14   ar
    29    12    17    1
    30    13    31    1
    31    14    32    1
    32    15    33    1
    33    15    34    1
    34    16    35    1
    35    16    36    1
    36    16    37    1
    37    17    38    1
    38    17    39    1
    39    17    40    1
    40    18    19    1
    41    19    41    1
    42    19    42    1
    43    19    43    1
