@<TRIPOS>MOLECULE
IMPHY017941
 30 29 0 0 0
SMALL
GASTEIGER

@<TRIPOS>ATOM
      1 F           5.0981   -0.6830    0.0000 F       1  UNL1       -0.1861
      2 F           4.0981    1.0490    0.0000 F       1  UNL1       -0.1861
      3 F           4.2321   -1.1830    0.0000 F       1  UNL1       -0.1884
      4 F           3.2321    0.5490    0.0000 F       1  UNL1       -0.1884
      5 F           2.0000   -1.3170    0.0000 F       1  UNL1       -0.1648
      6 F           3.3660   -1.6830    0.0000 F       1  UNL1       -0.1648
      7 F           2.3660    0.0490    0.0000 F       1  UNL1       -0.1648
      8 O           6.3301    0.1830    0.0000 O.3     1  UNL1       -0.4447
      9 O           5.4641    1.6830    0.0000 O.2     1  UNL1       -0.2438
     10 C          14.1244    0.6830    0.0000 C.3     1  UNL1        0.0000
     11 C          13.2583    0.1830    0.0000 C.3     1  UNL1        0.0000
     12 C          14.9904    0.1830    0.0000 C.3     1  UNL1        0.0000
     13 C          12.3923    0.6830    0.0000 C.3     1  UNL1        0.0000
     14 C          15.8564    0.6830    0.0000 C.3     1  UNL1        0.0000
     15 C          11.5263    0.1830    0.0000 C.3     1  UNL1        0.0000
     16 C          16.7224    0.1830    0.0000 C.3     1  UNL1        0.0000
     17 C          10.6603    0.6830    0.0000 C.3     1  UNL1        0.0000
     18 C          17.5885    0.6830    0.0000 C.3     1  UNL1        0.0000
     19 C           9.7942    0.1830    0.0000 C.3     1  UNL1        0.0001
     20 C          18.4545    0.1830    0.0000 C.3     1  UNL1        0.0000
     21 C           8.9282    0.6830    0.0000 C.3     1  UNL1        0.0038
     22 C          19.3205    0.6830    0.0000 C.3     1  UNL1        0.0000
     23 C           8.0622    0.1830    0.0000 C.3     1  UNL1        0.0474
     24 C          20.1865    0.1830    0.0000 C.3     1  UNL1        0.0000
     25 C           7.1962    0.6830    0.0000 C.3     1  UNL1        0.2086
     26 C          21.0526    0.6830    0.0000 C.3     1  UNL1        0.0000
     27 C           5.4641    0.6830    0.0000 C.2     1  UNL1        0.3848
     28 C           4.5981    0.1830    0.0000 C.3     1  UNL1        0.4129
     29 C           3.7321   -0.3170    0.0000 C.3     1  UNL1        0.4134
     30 C           2.8660   -0.8170    0.0000 C.3     1  UNL1        0.4608
@<TRIPOS>BOND
     1     1    28    1
     2     2    28    1
     3     3    29    1
     4     4    29    1
     5     5    30    1
     6     6    30    1
     7     7    30    1
     8     8    25    1
     9     8    27    1
    10     9    27    2
    11    10    11    1
    12    10    12    1
    13    11    13    1
    14    12    14    1
    15    13    15    1
    16    14    16    1
    17    15    17    1
    18    16    18    1
    19    17    19    1
    20    18    20    1
    21    19    21    1
    22    20    22    1
    23    21    23    1
    24    22    24    1
    25    23    25    1
    26    24    26    1
    27    27    28    1
    28    28    29    1
    29    29    30    1
