@<TRIPOS>MOLECULE
IMPHY010910
 50 49 0 0 0
SMALL
GASTEIGER

@<TRIPOS>ATOM
      1 O           2.5369    2.5000    0.0000 O.3     1  UNL1       -0.4806
      2 O           3.4030    1.0000    0.0000 O.2     1  UNL1       -0.2510
      3 C           6.0010   -2.5000    0.0000 C.3     1  UNL1       -0.0496
      4 C           5.1350   -2.0000    0.0000 C.3     1  UNL1       -0.0530
      5 C           6.8671   -2.0000    0.0000 C.3     1  UNL1       -0.0348
      6 C           6.0010    2.5000    0.0000 C.3     1  UNL1       -0.0491
      7 C           4.2690   -2.5000    0.0000 C.3     1  UNL1       -0.0559
      8 C           5.1350    2.0000    0.0000 C.3     1  UNL1       -0.0427
      9 C           6.8671    2.0000    0.0000 C.3     1  UNL1       -0.0347
     10 C           4.2690    2.5000    0.0000 C.3     1  UNL1        0.0448
     11 C           7.7331   -2.5000    0.0000 C.2     1  UNL1       -0.0876
     12 C           3.4030   -2.0000    0.0000 C.3     1  UNL1       -0.0653
     13 C           7.7331    2.5000    0.0000 C.2     1  UNL1       -0.0876
     14 C           8.5991   -2.0000    0.0000 C.2     1  UNL1       -0.0842
     15 C           8.5991   -1.0000    0.0000 C.3     1  UNL1       -0.0165
     16 C           8.5991    2.0000    0.0000 C.2     1  UNL1       -0.0842
     17 C           8.5991    1.0000    0.0000 C.3     1  UNL1       -0.0165
     18 C           9.4651   -0.5000    0.0000 C.2     1  UNL1       -0.0839
     19 C           9.4651    0.5000    0.0000 C.2     1  UNL1       -0.0839
     20 C           3.4030    2.0000    0.0000 C.2     1  UNL1        0.3047
     21 H           5.6025   -2.9750    0.0000 H       1  UNL1        0.0268
     22 H           6.3996   -2.9750    0.0000 H       1  UNL1        0.0268
     23 H           5.5335   -1.5250    0.0000 H       1  UNL1        0.0265
     24 H           4.7365   -1.5250    0.0000 H       1  UNL1        0.0265
     25 H           7.2656   -1.5250    0.0000 H       1  UNL1        0.0307
     26 H           6.4685   -1.5250    0.0000 H       1  UNL1        0.0307
     27 H           6.3996    2.9750    0.0000 H       1  UNL1        0.0268
     28 H           5.6025    2.9750    0.0000 H       1  UNL1        0.0268
     29 H           3.8705   -2.9750    0.0000 H       1  UNL1        0.0263
     30 H           4.6675   -2.9750    0.0000 H       1  UNL1        0.0263
     31 H           4.7365    1.5250    0.0000 H       1  UNL1        0.0270
     32 H           5.5335    1.5250    0.0000 H       1  UNL1        0.0270
     33 H           6.4685    1.5250    0.0000 H       1  UNL1        0.0307
     34 H           7.2656    1.5250    0.0000 H       1  UNL1        0.0307
     35 H           4.6675    2.9750    0.0000 H       1  UNL1        0.0377
     36 H           3.8705    2.9750    0.0000 H       1  UNL1        0.0377
     37 H           7.7331   -3.1200    0.0000 H       1  UNL1        0.0569
     38 H           3.7130   -1.4631    0.0000 H       1  UNL1        0.0230
     39 H           2.8660   -1.6900    0.0000 H       1  UNL1        0.0230
     40 H           3.0930   -2.5369    0.0000 H       1  UNL1        0.0230
     41 H           7.7331    3.1200    0.0000 H       1  UNL1        0.0569
     42 H           9.1360   -2.3100    0.0000 H       1  UNL1        0.0572
     43 H           8.3871   -0.4174    0.0000 H       1  UNL1        0.0350
     44 H           7.9885   -1.1077    0.0000 H       1  UNL1        0.0350
     45 H           9.1360    2.3100    0.0000 H       1  UNL1        0.0572
     46 H           7.9885    1.1077    0.0000 H       1  UNL1        0.0350
     47 H           8.3871    0.4174    0.0000 H       1  UNL1        0.0350
     48 H          10.0021   -0.8100    0.0000 H       1  UNL1        0.0572
     49 H          10.0021    0.8100    0.0000 H       1  UNL1        0.0572
     50 H           2.0000    2.1900    0.0000 H       1  UNL1        0.2951
@<TRIPOS>BOND
     1     1    20    1
     2     1    50    1
     3     2    20    2
     4     3     4    1
     5     3     5    1
     6     3    21    1
     7     3    22    1
     8     4     7    1
     9     4    23    1
    10     4    24    1
    11     5    11    1
    12     5    25    1
    13     5    26    1
    14     6     8    1
    15     6     9    1
    16     6    27    1
    17     6    28    1
    18     7    12    1
    19     7    29    1
    20     7    30    1
    21     8    10    1
    22     8    31    1
    23     8    32    1
    24     9    13    1
    25     9    33    1
    26     9    34    1
    27    10    20    1
    28    10    35    1
    29    10    36    1
    30    11    14    2
    31    11    37    1
    32    12    38    1
    33    12    39    1
    34    12    40    1
    35    13    16    2
    36    13    41    1
    37    14    15    1
    38    14    42    1
    39    15    18    1
    40    15    43    1
    41    15    44    1
    42    16    17    1
    43    16    45    1
    44    17    19    1
    45    17    46    1
    46    17    47    1
    47    18    19    2
    48    18    48    1
    49    19    49    1
