@<TRIPOS>MOLECULE
IMPHY012991
 81 85 0 0 0
SMALL
GASTEIGER

@<TRIPOS>ATOM
      1 O           2.5357   -1.9012    0.0000 O.3     1  UNL1       -0.3912
      2 C           7.9288    0.1511    0.0000 C.3     1  UNL1       -0.0231
      3 C           7.0628   -0.3489    0.0000 C.3     1  UNL1       -0.0231
      4 C           7.9288    1.1511    0.0000 C.3     1  UNL1       -0.0294
      5 C           6.1968    0.1511    0.0000 C.3     1  UNL1       -0.0294
      6 C           8.8228    1.6858    0.0000 C.3     1  UNL1       -0.0253
      7 C           5.2868   -0.3557    0.0000 C.3     1  UNL1       -0.0252
      8 C           5.2787   -1.3973    0.0000 C.3     1  UNL1       -0.0278
      9 C           9.7288    1.1719    0.0000 C.3     1  UNL1       -0.0288
     10 C           7.0628    1.6511    0.0000 C.3     1  UNL1       -0.0489
     11 C           8.8228   -0.3835    0.0000 C.3     1  UNL1       -0.0466
     12 C           7.0789   -1.3904    0.0000 C.3     1  UNL1       -0.0466
     13 C           6.1968    1.1511    0.0000 C.3     1  UNL1       -0.0489
     14 C           6.1808   -1.9181    0.0000 C.3     1  UNL1       -0.0486
     15 C           9.7288    0.1303    0.0000 C.3     1  UNL1       -0.0486
     16 C           9.0329    2.6997    0.0000 C.3     1  UNL1       -0.0465
     17 C           4.3433   -1.9470    0.0000 C.3     1  UNL1       -0.0056
     18 C          10.4911    1.8727    0.0000 C.3     1  UNL1       -0.0171
     19 C           4.3599    0.2084    0.0000 C.3     1  UNL1       -0.0447
     20 C           8.2709   -0.7885    0.0000 C.3     1  UNL1       -0.0588
     21 C           7.7056   -1.1149    0.0000 C.3     1  UNL1       -0.0588
     22 C          10.0619    2.8150    0.0000 C.3     1  UNL1       -0.0457
     23 C           7.9529    2.1791    0.0000 C.3     1  UNL1       -0.0590
     24 C           5.2945    0.6442    0.0000 C.3     1  UNL1       -0.0590
     25 C           3.4037   -1.4046    0.0000 C.3     1  UNL1        0.0606
     26 C           3.4120   -0.3196    0.0000 C.3     1  UNL1       -0.0258
     27 C           3.8467   -2.8150    0.0000 C.3     1  UNL1       -0.0572
     28 C           4.8466   -2.8111    0.0000 C.3     1  UNL1       -0.0572
     29 C          11.4712    1.6740    0.0000 C.2     1  UNL1       -0.0763
     30 C          12.1333    2.4234    0.0000 C.3     1  UNL1       -0.0438
     31 C          11.7892    0.7259    0.0000 C.2     1  UNL1       -0.0994
     32 H           8.6682    0.7318    0.0000 H       1  UNL1        0.0312
     33 H           6.9329    0.5761    0.0000 H       1  UNL1        0.0312
     34 H           5.2820   -2.2473    0.0000 H       1  UNL1        0.0312
     35 H          10.5071    0.8302    0.0000 H       1  UNL1        0.0312
     36 H           7.4613    2.1261    0.0000 H       1  UNL1        0.0268
     37 H           6.6643    2.1261    0.0000 H       1  UNL1        0.0268
     38 H           8.4182   -0.8533    0.0000 H       1  UNL1        0.0271
     39 H           9.2164   -0.8626    0.0000 H       1  UNL1        0.0271
     40 H           7.2969   -1.9708    0.0000 H       1  UNL1        0.0271
     41 H           7.6880   -1.2749    0.0000 H       1  UNL1        0.0271
     42 H           5.9847    1.7337    0.0000 H       1  UNL1        0.0268
     43 H           5.5862    1.0435    0.0000 H       1  UNL1        0.0268
     44 H           5.7835   -2.3941    0.0000 H       1  UNL1        0.0268
     45 H           6.5818   -2.3910    0.0000 H       1  UNL1        0.0268
     46 H           9.9379   -0.4534    0.0000 H       1  UNL1        0.0268
     47 H          10.3397    0.2364    0.0000 H       1  UNL1        0.0268
     48 H           9.0290    3.3197    0.0000 H       1  UNL1        0.0271
     49 H           8.4159    2.7610    0.0000 H       1  UNL1        0.0271
     50 H          10.8770    2.3580    0.0000 H       1  UNL1        0.0348
     51 H           4.7681    0.6750    0.0000 H       1  UNL1        0.0271
     52 H           3.9700    0.6904    0.0000 H       1  UNL1        0.0271
     53 H           7.6884   -1.0006    0.0000 H       1  UNL1        0.0235
     54 H           8.4830   -1.3711    0.0000 H       1  UNL1        0.0235
     55 H           8.8535   -0.5764    0.0000 H       1  UNL1        0.0235
     56 H           7.2306   -1.5134    0.0000 H       1  UNL1        0.0235
     57 H           8.1041   -1.5899    0.0000 H       1  UNL1        0.0235
     58 H           8.1805   -0.7164    0.0000 H       1  UNL1        0.0235
     59 H          10.6500    3.0113    0.0000 H       1  UNL1        0.0271
     60 H           9.9285    3.4205    0.0000 H       1  UNL1        0.0271
     61 H           8.2588    2.7184    0.0000 H       1  UNL1        0.0235
     62 H           7.4136    2.4850    0.0000 H       1  UNL1        0.0235
     63 H           7.6471    1.6398    0.0000 H       1  UNL1        0.0235
     64 H           5.9145    0.6395    0.0000 H       1  UNL1        0.0235
     65 H           5.2993    1.2642    0.0000 H       1  UNL1        0.0235
     66 H           4.6745    0.6490    0.0000 H       1  UNL1        0.0235
     67 H           3.4025   -2.0246    0.0000 H       1  UNL1        0.0599
     68 H           3.2075    0.2657    0.0000 H       1  UNL1        0.0290
     69 H           2.8004   -0.4210    0.0000 H       1  UNL1        0.0290
     70 H           3.3085   -2.5071    0.0000 H       1  UNL1        0.0236
     71 H           3.5387   -3.3531    0.0000 H       1  UNL1        0.0236
     72 H           4.3848   -3.1229    0.0000 H       1  UNL1        0.0236
     73 H           4.3109   -3.1232    0.0000 H       1  UNL1        0.0236
     74 H           5.1587   -3.3469    0.0000 H       1  UNL1        0.0236
     75 H           5.3824   -2.4991    0.0000 H       1  UNL1        0.0236
     76 H           2.0000   -1.5891    0.0000 H       1  UNL1        0.2098
     77 H          12.5979    2.0130    0.0000 H       1  UNL1        0.0274
     78 H          12.5438    2.8881    0.0000 H       1  UNL1        0.0274
     79 H          11.6687    2.8340    0.0000 H       1  UNL1        0.0274
     80 H          11.3787    0.2613    0.0000 H       1  UNL1        0.0534
     81 H          12.3968    0.6028    0.0000 H       1  UNL1        0.0534
@<TRIPOS>BOND
     1    25     1    1
     2     1    76    1
     3     2     3    1
     4     2     4    1
     5     2    11    1
     6     2    20    1
     7     3     5    1
     8     3    12    1
     9     3    21    1
    10     4     6    1
    11     4    10    1
    12     4    32    1
    13     5     7    1
    14     5    13    1
    15     5    33    1
    16     6     9    1
    17     6    16    1
    18     6    23    1
    19     7     8    1
    20     7    19    1
    21     7    24    1
    22     8    14    1
    23     8    17    1
    24     8    34    1
    25     9    15    1
    26     9    18    1
    27     9    35    1
    28    10    13    1
    29    10    36    1
    30    10    37    1
    31    11    15    1
    32    11    38    1
    33    11    39    1
    34    12    14    1
    35    12    40    1
    36    12    41    1
    37    13    42    1
    38    13    43    1
    39    14    44    1
    40    14    45    1
    41    15    46    1
    42    15    47    1
    43    16    22    1
    44    16    48    1
    45    16    49    1
    46    17    25    1
    47    17    27    1
    48    17    28    1
    49    18    22    1
    50    18    29    1
    51    18    50    1
    52    19    26    1
    53    19    51    1
    54    19    52    1
    55    20    53    1
    56    20    54    1
    57    20    55    1
    58    21    56    1
    59    21    57    1
    60    21    58    1
    61    22    59    1
    62    22    60    1
    63    23    61    1
    64    23    62    1
    65    23    63    1
    66    24    64    1
    67    24    65    1
    68    24    66    1
    69    25    26    1
    70    25    67    1
    71    26    68    1
    72    26    69    1
    73    27    70    1
    74    27    71    1
    75    27    72    1
    76    28    73    1
    77    28    74    1
    78    28    75    1
    79    29    30    1
    80    29    31    2
    81    30    77    1
    82    30    78    1
    83    30    79    1
    84    31    80    1
    85    31    81    1
