@<TRIPOS>MOLECULE
IMPHY015907
 20 20 0 0 0
SMALL
GASTEIGER

@<TRIPOS>ATOM
      1 O           3.7320    2.2500    0.0000 O.2     1  UNL1       -0.3004
      2 C           2.8660    0.7500    0.0000 C.3     1  UNL1        0.0367
      3 C           2.8660   -0.2500    0.0000 C.ar    1  UNL1       -0.0377
      4 C           2.0000    1.2500    0.0000 C.3     1  UNL1       -0.0519
      5 C           2.0000   -0.7500    0.0000 C.ar    1  UNL1       -0.0579
      6 C           3.7320   -0.7500    0.0000 C.ar    1  UNL1       -0.0579
      7 C           3.7320    1.2500    0.0000 C.2     1  UNL1        0.1274
      8 C           2.0000   -1.7500    0.0000 C.ar    1  UNL1       -0.0615
      9 C           3.7320   -1.7500    0.0000 C.ar    1  UNL1       -0.0615
     10 C           2.8660   -2.2500    0.0000 C.ar    1  UNL1       -0.0617
     11 H           2.8660    1.3700    0.0000 H       1  UNL1        0.0420
     12 H           2.3100    1.7869    0.0000 H       1  UNL1        0.0239
     13 H           1.4631    1.5600    0.0000 H       1  UNL1        0.0239
     14 H           1.6900    0.7131    0.0000 H       1  UNL1        0.0239
     15 H           1.4631   -0.4400    0.0000 H       1  UNL1        0.0620
     16 H           4.2690   -0.4400    0.0000 H       1  UNL1        0.0620
     17 H           4.2690    0.9400    0.0000 H       1  UNL1        0.1032
     18 H           1.4631   -2.0600    0.0000 H       1  UNL1        0.0618
     19 H           4.2690   -2.0600    0.0000 H       1  UNL1        0.0618
     20 H           2.8660   -2.8700    0.0000 H       1  UNL1        0.0618
@<TRIPOS>BOND
     1     1     7    2
     2     2     3    1
     3     2     4    1
     4     2     7    1
     5     2    11    1
     6     3     5   ar
     7     3     6   ar
     8     4    12    1
     9     4    13    1
    10     4    14    1
    11     5     8   ar
    12     5    15    1
    13     6     9   ar
    14     6    16    1
    15     7    17    1
    16     8    10   ar
    17     8    18    1
    18     9    10   ar
    19     9    19    1
    20    10    20    1
