@<TRIPOS>MOLECULE
IMPHY015622
 20 19 0 0 0
SMALL
GASTEIGER

@<TRIPOS>ATOM
      1 O           2.8660    0.2500    0.0000 O.3     1  UNL1       -0.4679
      2 O           7.1962   -0.2500    0.0000 O.3     1  UNL1       -0.4679
      3 O           3.7320   -1.2500    0.0000 O.2     1  UNL1       -0.2508
      4 O           6.3301    1.2500    0.0000 O.2     1  UNL1       -0.2508
      5 C           4.5981    0.2500    0.0000 C.3     1  UNL1        0.0550
      6 C           5.4641   -0.2500    0.0000 C.3     1  UNL1        0.0550
      7 C           3.7320   -0.2500    0.0000 C.2     1  UNL1        0.3073
      8 C           6.3301    0.2500    0.0000 C.2     1  UNL1        0.3073
      9 C           2.0000   -0.2500    0.0000 C.3     1  UNL1        0.0817
     10 C           8.0622    0.2500    0.0000 C.3     1  UNL1        0.0817
     11 H           4.9966    0.7249    0.0000 H       1  UNL1        0.0383
     12 H           4.1996    0.7249    0.0000 H       1  UNL1        0.0383
     13 H           5.0656   -0.7249    0.0000 H       1  UNL1        0.0383
     14 H           5.8626   -0.7249    0.0000 H       1  UNL1        0.0383
     15 H           1.6900    0.2869    0.0000 H       1  UNL1        0.0661
     16 H           1.4631   -0.5600    0.0000 H       1  UNL1        0.0661
     17 H           2.3100   -0.7869    0.0000 H       1  UNL1        0.0661
     18 H           8.3722   -0.2869    0.0000 H       1  UNL1        0.0661
     19 H           8.5991    0.5600    0.0000 H       1  UNL1        0.0661
     20 H           7.7522    0.7869    0.0000 H       1  UNL1        0.0661
@<TRIPOS>BOND
     1     1     7    1
     2     1     9    1
     3     2     8    1
     4     2    10    1
     5     3     7    2
     6     4     8    2
     7     5     6    1
     8     5     7    1
     9     5    11    1
    10     5    12    1
    11     6     8    1
    12     6    13    1
    13     6    14    1
    14     9    15    1
    15     9    16    1
    16     9    17    1
    17    10    18    1
    18    10    19    1
    19    10    20    1
