@<TRIPOS>MOLECULE
IMPHY000811
 56 59 0 0 0
SMALL
GASTEIGER

@<TRIPOS>ATOM
      1 O           8.1174   -0.7371    0.0000 O.3     1  UNL1       -0.4458
      2 O           6.8671   -1.1393    0.0000 O.3     1  UNL1       -0.3094
      3 O           5.9670    0.3850    0.0000 O.2     1  UNL1       -0.4700
      4 O           5.1350   -1.1393    0.0000 O.3     1  UNL1       -0.3404
      5 O           6.8671   -3.1393    0.0000 O.3     1  UNL1       -0.3841
      6 O           5.1350   -4.1393    0.0000 O.3     1  UNL1       -0.3864
      7 O           3.4030   -3.1393    0.0000 O.3     1  UNL1       -0.3865
      8 O           8.3758   -2.5003    0.0000 O.2     1  UNL1       -0.2452
      9 O           6.0599    3.4495    0.0000 O.3     1  UNL1       -0.4646
     10 O           7.7915    3.4095    0.0000 O.2     1  UNL1       -0.2452
     11 O           2.5369   -1.6393    0.0000 O.3     1  UNL1       -0.3924
     12 O          11.3708   -1.4559    0.0000 O.3     1  UNL1       -0.3902
     13 C           7.7671    0.3850    0.0000 C.3     1  UNL1        0.0793
     14 C           8.7145    0.0650    0.0000 C.3     1  UNL1        0.1603
     15 C           7.7787    1.3849    0.0000 C.3     1  UNL1        0.0248
     16 C           6.8671   -0.1393    0.0000 C.3     1  UNL1        0.2114
     17 C           9.3116    0.8672    0.0000 C.2     1  UNL1       -0.0398
     18 C           8.7333    1.6830    0.0000 C.2     1  UNL1       -0.0755
     19 C           6.8910    1.9299    0.0000 C.2     1  UNL1        0.0781
     20 C           9.6620   -0.2550    0.0000 C.2     1  UNL1       -0.0243
     21 C           6.0010   -1.6393    0.0000 C.3     1  UNL1        0.1918
     22 C           6.0010   -2.6393    0.0000 C.3     1  UNL1        0.1342
     23 C           5.1350   -3.1393    0.0000 C.3     1  UNL1        0.1141
     24 C           4.2690   -2.6393    0.0000 C.3     1  UNL1        0.1119
     25 C           9.6504   -1.2549    0.0000 C.2     1  UNL1        0.0618
     26 C           5.9790    1.4266    0.0000 C.2     1  UNL1        0.0984
     27 C           4.2690   -1.6393    0.0000 C.3     1  UNL1        0.1130
     28 C           8.6958   -1.5529    0.0000 C.2     1  UNL1        0.3383
     29 C           6.9141    2.9296    0.0000 C.2     1  UNL1        0.3384
     30 C           3.4030   -1.1393    0.0000 C.3     1  UNL1        0.0730
     31 C          10.4526   -1.8520    0.0000 C.3     1  UNL1        0.0758
     32 C           6.0830    4.4493    0.0000 C.3     1  UNL1        0.0820
     33 H           7.8527   -0.4607    0.0000 H       1  UNL1        0.0416
     34 H           7.8838    2.2284    0.0000 H       1  UNL1        0.0401
     35 H           7.4046   -0.4482    0.0000 H       1  UNL1        0.1061
     36 H           9.9316    0.8600    0.0000 H       1  UNL1        0.0612
     37 H           8.9316    2.2704    0.0000 H       1  UNL1        0.0577
     38 H          10.1677    0.1036    0.0000 H       1  UNL1        0.0620
     39 H           6.0010   -1.0193    0.0000 H       1  UNL1        0.0939
     40 H           6.0010   -3.2593    0.0000 H       1  UNL1        0.0671
     41 H           4.5981   -3.4493    0.0000 H       1  UNL1        0.0648
     42 H           3.7320   -2.3293    0.0000 H       1  UNL1        0.0647
     43 H           4.2690   -1.0193    0.0000 H       1  UNL1        0.0647
     44 H           5.4470    1.7448    0.0000 H       1  UNL1        0.1029
     45 H           3.8015   -0.6643    0.0000 H       1  UNL1        0.0584
     46 H           3.0044   -0.6643    0.0000 H       1  UNL1        0.0584
     47 H          10.0016   -2.2775    0.0000 H       1  UNL1        0.0609
     48 H          10.7933   -2.3700    0.0000 H       1  UNL1        0.0609
     49 H           6.8671   -3.7593    0.0000 H       1  UNL1        0.2101
     50 H           4.5981   -4.4493    0.0000 H       1  UNL1        0.2100
     51 H           3.4030   -3.7593    0.0000 H       1  UNL1        0.2100
     52 H           2.0000   -1.3293    0.0000 H       1  UNL1        0.2095
     53 H          11.8681   -1.8261    0.0000 H       1  UNL1        0.2099
     54 H           6.7028    4.4349    0.0000 H       1  UNL1        0.0661
     55 H           6.0973    5.0691    0.0000 H       1  UNL1        0.0661
     56 H           5.4632    4.4636    0.0000 H       1  UNL1        0.0661
@<TRIPOS>BOND
     1    14     1    1
     2     1    28    1
     3    16     2    1
     4    21     2    1
     5     3    16    1
     6     3    26    1
     7     4    21    1
     8     4    27    1
     9    22     5    1
    10     5    49    1
    11    23     6    1
    12     6    50    1
    13    24     7    1
    14     7    51    1
    15     8    28    2
    16     9    29    1
    17     9    32    1
    18    10    29    2
    19    11    30    1
    20    11    52    1
    21    12    31    1
    22    12    53    1
    23    13    14    1
    24    13    15    1
    25    13    16    1
    26    13    33    1
    27    14    17    1
    28    14    20    1
    29    15    18    1
    30    15    19    1
    31    15    34    1
    32    16    35    1
    33    17    18    2
    34    17    36    1
    35    18    37    1
    36    19    26    2
    37    19    29    1
    38    20    25    2
    39    20    38    1
    40    21    22    1
    41    21    39    1
    42    22    23    1
    43    22    40    1
    44    23    24    1
    45    23    41    1
    46    24    27    1
    47    24    42    1
    48    25    28    1
    49    25    31    1
    50    26    44    1
    51    27    30    1
    52    27    43    1
    53    30    45    1
    54    30    46    1
    55    31    47    1
    56    31    48    1
    57    32    54    1
    58    32    55    1
    59    32    56    1
