@<TRIPOS>MOLECULE
IMPHY010186
 58 60 0 0 0
SMALL
GASTEIGER

@<TRIPOS>ATOM
      1 O           4.4094   -1.4554    0.0000 O.3     1  UNL1       -0.3571
      2 O           4.9613    1.0190    0.0000 O.3     1  UNL1       -0.3774
      3 O           7.9014   -1.4207    0.0000 O.3     1  UNL1       -0.3888
      4 O           5.2816    2.1108    0.0000 O.3     1  UNL1       -0.3911
      5 O           6.1694   -2.4207    0.0000 O.3     1  UNL1       -0.3863
      6 O           3.5492    1.1239    0.0000 O.2     1  UNL1       -0.2941
      7 C           6.1694    0.5793    0.0000 C.3     1  UNL1        0.0380
      8 C           7.0354    0.0793    0.0000 C.3     1  UNL1        0.0036
      9 C           5.3033    0.0793    0.0000 C.3     1  UNL1        0.1625
     10 C           7.9454    0.5861    0.0000 C.3     1  UNL1       -0.0289
     11 C           5.3033   -0.9207    0.0000 C.3     1  UNL1        0.1319
     12 C           7.0354   -0.9207    0.0000 C.3     1  UNL1        0.0878
     13 C           6.1533    1.6208    0.0000 C.3     1  UNL1        0.0641
     14 C           6.1694   -1.4207    0.0000 C.3     1  UNL1        0.1131
     15 C           7.9534    1.6277    0.0000 C.3     1  UNL1       -0.0452
     16 C           7.0513    2.1486    0.0000 C.3     1  UNL1       -0.0257
     17 C           5.5266    1.3453    0.0000 C.3     1  UNL1       -0.0537
     18 C           4.4094    0.6140    0.0000 C.2     1  UNL1        0.1712
     19 C           5.3033   -1.9207    0.0000 C.3     1  UNL1       -0.0301
     20 C           8.9453    0.5746    0.0000 C.3     1  UNL1       -0.0595
     21 C           8.4353   -0.2856    0.0000 C.3     1  UNL1       -0.0595
     22 C           3.5033   -0.9415    0.0000 C.3     1  UNL1        0.0922
     23 C           3.5033    0.1001    0.0000 C.3     1  UNL1        0.0413
     24 C           3.0067   -1.8095    0.0000 C.3     1  UNL1       -0.0318
     25 C           2.5033   -0.9454    0.0000 C.2     1  UNL1       -0.0595
     26 C           2.0000   -0.0813    0.0000 C.2     1  UNL1       -0.0999
     27 H           7.7682   -0.3514    0.0000 H       1  UNL1        0.0339
     28 H           7.0354   -1.5407    0.0000 H       1  UNL1        0.0623
     29 H           6.1473    2.2408    0.0000 H       1  UNL1        0.0600
     30 H           5.6324   -1.7307    0.0000 H       1  UNL1        0.0649
     31 H           8.5634    1.5169    0.0000 H       1  UNL1        0.0271
     32 H           8.1670    2.2098    0.0000 H       1  UNL1        0.0271
     33 H           7.4486    2.6245    0.0000 H       1  UNL1        0.0290
     34 H           6.6504    2.6214    0.0000 H       1  UNL1        0.0290
     35 H           6.0015    1.7439    0.0000 H       1  UNL1        0.0237
     36 H           5.1280    1.8203    0.0000 H       1  UNL1        0.0237
     37 H           5.0516    0.9468    0.0000 H       1  UNL1        0.0237
     38 H           4.6833   -1.9207    0.0000 H       1  UNL1        0.0259
     39 H           5.3033   -2.5407    0.0000 H       1  UNL1        0.0259
     40 H           5.9233   -1.9207    0.0000 H       1  UNL1        0.0259
     41 H           8.9382   -0.0454    0.0000 H       1  UNL1        0.0235
     42 H           9.5653    0.5674    0.0000 H       1  UNL1        0.0235
     43 H           8.9525    1.1945    0.0000 H       1  UNL1        0.0235
     44 H           7.8949   -0.5894    0.0000 H       1  UNL1        0.0235
     45 H           8.7391   -0.8261    0.0000 H       1  UNL1        0.0235
     46 H           8.9758    0.0182    0.0000 H       1  UNL1        0.0235
     47 H           3.2943    0.6838    0.0000 H       1  UNL1        0.0374
     48 H           2.8925   -0.0060    0.0000 H       1  UNL1        0.0374
     49 H           4.4864    1.4175    0.0000 H       1  UNL1        0.2109
     50 H           7.9014   -2.0407    0.0000 H       1  UNL1        0.2099
     51 H           5.2744    2.7307    0.0000 H       1  UNL1        0.2098
     52 H           6.7063   -2.7307    0.0000 H       1  UNL1        0.2100
     53 H           2.4685   -1.5015    0.0000 H       1  UNL1        0.0261
     54 H           2.6987   -2.3476    0.0000 H       1  UNL1        0.0261
     55 H           3.5448   -2.1174    0.0000 H       1  UNL1        0.0261
     56 H           2.1954   -1.4835    0.0000 H       1  UNL1        0.0595
     57 H           2.3079    0.4568    0.0000 H       1  UNL1        0.0533
     58 H           1.3800   -0.0837    0.0000 H       1  UNL1        0.0533
@<TRIPOS>BOND
     1     1    11    1
     2     1    22    1
     3     9     2    1
     4     2    49    1
     5    12     3    1
     6     3    50    1
     7    13     4    1
     8     4    51    1
     9    14     5    1
    10     5    52    1
    11     6    18    2
    12     7     8    1
    13     7     9    1
    14     7    13    1
    15     7    17    1
    16     8    10    1
    17     8    12    1
    18     8    27    1
    19     9    11    1
    20     9    18    1
    21    10    15    1
    22    10    20    1
    23    10    21    1
    24    11    14    1
    25    11    19    1
    26    12    14    1
    27    12    28    1
    28    13    16    1
    29    13    29    1
    30    14    30    1
    31    15    16    1
    32    15    31    1
    33    15    32    1
    34    16    33    1
    35    16    34    1
    36    17    35    1
    37    17    36    1
    38    17    37    1
    39    18    23    1
    40    19    38    1
    41    19    39    1
    42    19    40    1
    43    20    41    1
    44    20    42    1
    45    20    43    1
    46    21    44    1
    47    21    45    1
    48    21    46    1
    49    22    23    1
    50    22    24    1
    51    22    25    1
    52    23    47    1
    53    23    48    1
    54    24    53    1
    55    24    54    1
    56    24    55    1
    57    25    26    2
    58    25    56    1
    59    26    57    1
    60    26    58    1
