@<TRIPOS>MOLECULE
IMPHY005385
 53 56 0 0 0
SMALL
GASTEIGER

@<TRIPOS>ATOM
      1 O           5.3415    1.8940    0.0000 O.3     1  UNL1       -0.4512
      2 O           4.4271    0.3137    0.0000 O.3     1  UNL1       -0.3429
      3 O           6.1562   -0.8798    0.0000 O.3     1  UNL1       -0.4458
      4 O           3.8292   -1.8160    0.0000 O.3     1  UNL1       -0.4571
      5 O           7.2569    1.5980    0.0000 O.2     1  UNL1       -0.2496
      6 O           7.4658    0.3475    0.0000 O.2     1  UNL1       -0.2496
      7 O           5.4448   -2.4403    0.0000 O.2     1  UNL1       -0.2463
      8 N           2.8090    1.4893    0.0000 N.4     1  UNL1        0.2738
      9 C           3.6180    0.9015    0.0000 C.3     1  UNL1        0.1582
     10 C           4.4271    1.4893    0.0000 C.3     1  UNL1        0.1831
     11 C           3.1180    2.4403    0.0000 C.3     1  UNL1       -0.0229
     12 C           4.1180    2.4403    0.0000 C.3     1  UNL1        0.0334
     13 C           2.0063    0.9029    0.0000 C.3     1  UNL1       -0.0074
     14 C           3.3084   -0.0431    0.0000 C.2     1  UNL1        0.0510
     15 C           2.0000    2.0771    0.0000 C.3     1  UNL1       -0.0376
     16 C           2.3143   -0.0423    0.0000 C.2     1  UNL1       -0.0286
     17 C           5.6875    0.5901    0.0000 C.3     1  UNL1        0.1702
     18 C           6.0922   -0.3243    0.0000 C.3     1  UNL1        0.0326
     19 C           3.2016   -1.0374    0.0000 C.3     1  UNL1        0.1219
     20 C           5.1777   -0.7290    0.0000 C.3     1  UNL1        0.2102
     21 C           6.2771    1.3978    0.0000 C.2     1  UNL1        0.3252
     22 C           4.8199    1.0874    0.0000 C.3     1  UNL1       -0.0293
     23 C           6.5131    0.0437    0.0000 C.2     1  UNL1        0.3257
     24 C           4.8172   -1.6618    0.0000 C.2     1  UNL1        0.3519
     25 C           7.0249   -0.6848    0.0000 C.3     1  UNL1       -0.0567
     26 C           5.6785   -1.5946    0.0000 C.3     1  UNL1       -0.0139
     27 C           4.8166    2.0873    0.0000 C.3     1  UNL1       -0.0637
     28 H           4.7736    2.2654    0.0000 H       1  UNL1        0.0828
     29 H           3.1828    3.0569    0.0000 H       1  UNL1        0.0817
     30 H           2.5116    2.5692    0.0000 H       1  UNL1        0.0817
     31 H           4.7245    2.5692    0.0000 H       1  UNL1        0.0356
     32 H           4.0532    3.0569    0.0000 H       1  UNL1        0.0356
     33 H           1.6952    1.4392    0.0000 H       1  UNL1        0.0863
     34 H           1.4403    0.6499    0.0000 H       1  UNL1        0.0863
     35 H           2.3644    2.5787    0.0000 H       1  UNL1        0.0779
     36 H           1.4984    2.4415    0.0000 H       1  UNL1        0.0779
     37 H           1.6356    1.5755    0.0000 H       1  UNL1        0.0779
     38 H           1.9499   -0.5439    0.0000 H       1  UNL1        0.0628
     39 H           6.1125   -1.1741    0.0000 H       1  UNL1        0.0358
     40 H           2.6233   -0.8139    0.0000 H       1  UNL1        0.0748
     41 H           2.8361   -1.5382    0.0000 H       1  UNL1        0.0748
     42 H           4.3622   -0.3029    0.0000 H       1  UNL1        0.2162
     43 H           4.2090    1.1931    0.0000 H       1  UNL1        0.0279
     44 H           4.6097    0.5041    0.0000 H       1  UNL1        0.0279
     45 H           6.8014   -1.2631    0.0000 H       1  UNL1        0.0234
     46 H           7.6032   -0.9083    0.0000 H       1  UNL1        0.0234
     47 H           7.2484   -0.1065    0.0000 H       1  UNL1        0.0234
     48 H           5.1419   -1.9051    0.0000 H       1  UNL1        0.0274
     49 H           5.9890   -2.1312    0.0000 H       1  UNL1        0.0274
     50 H           6.2152   -1.2840    0.0000 H       1  UNL1        0.0274
     51 H           5.4366    2.0894    0.0000 H       1  UNL1        0.0230
     52 H           4.8146    2.7073    0.0000 H       1  UNL1        0.0230
     53 H           4.1966    2.0853    0.0000 H       1  UNL1        0.0230
@<TRIPOS>UNITY_ATOM_ATTR
8 1
charge 1
@<TRIPOS>BOND
     1     1    10    1
     2     1    21    1
     3     2     9    1
     4     2    42    1
     5     3    20    1
     6     3    23    1
     7     4    19    1
     8     4    24    1
     9     5    21    2
    10     6    23    2
    11     7    24    2
    12     8     9    1
    13     8    11    1
    14     8    13    1
    15     8    15    1
    16     9    10    1
    17     9    14    1
    18    10    12    1
    19    10    28    1
    20    11    12    1
    21    11    29    1
    22    11    30    1
    23    12    31    1
    24    12    32    1
    25    13    16    1
    26    13    33    1
    27    13    34    1
    28    14    16    2
    29    14    19    1
    30    15    35    1
    31    15    36    1
    32    15    37    1
    33    16    38    1
    34    17    18    1
    35    17    21    1
    36    17    22    1
    37    17    23    1
    38    18    20    1
    39    18    25    1
    40    18    39    1
    41    19    40    1
    42    19    41    1
    43    20    24    1
    44    20    26    1
    45    22    27    1
    46    22    43    1
    47    22    44    1
    48    25    45    1
    49    25    46    1
    50    25    47    1
    51    26    48    1
    52    26    49    1
    53    26    50    1
    54    27    51    1
    55    27    52    1
    56    27    53    1
