@<TRIPOS>MOLECULE
IMPHY000024
 33 33 0 0 0
SMALL
GASTEIGER

@<TRIPOS>ATOM
      1 O           4.5981    0.8100    0.0000 O.3     1  UNL1       -0.3917
      2 N           7.1962   -0.6900    0.0000 N.3     1  UNL1       -0.3132
      3 C           6.3301   -0.1900    0.0000 C.3     1  UNL1        0.0100
      4 C           6.3301    0.8100    0.0000 C.3     1  UNL1       -0.0374
      5 C           5.4641   -0.6900    0.0000 C.3     1  UNL1       -0.0114
      6 C           7.1962    1.3100    0.0000 C.3     1  UNL1       -0.0505
      7 C           8.0622    0.8100    0.0000 C.3     1  UNL1       -0.0404
      8 C           8.0622   -0.1900    0.0000 C.3     1  UNL1       -0.0039
      9 C           4.5981   -0.1900    0.0000 C.3     1  UNL1        0.0567
     10 C           3.7320   -0.6900    0.0000 C.3     1  UNL1       -0.0271
     11 C           2.8660   -0.1900    0.0000 C.3     1  UNL1       -0.0536
     12 C           2.0000   -0.6900    0.0000 C.3     1  UNL1       -0.0652
     13 H           6.3301   -0.8100    0.0000 H       1  UNL1        0.0461
     14 H           6.1181    1.3926    0.0000 H       1  UNL1        0.0280
     15 H           5.7196    0.7023    0.0000 H       1  UNL1        0.0280
     16 H           5.0656   -1.1650    0.0000 H       1  UNL1        0.0305
     17 H           5.8626   -1.1650    0.0000 H       1  UNL1        0.0305
     18 H           7.5947    1.7850    0.0000 H       1  UNL1        0.0266
     19 H           6.7976    1.7850    0.0000 H       1  UNL1        0.0266
     20 H           8.6728    0.7023    0.0000 H       1  UNL1        0.0277
     21 H           8.2742    1.3926    0.0000 H       1  UNL1        0.0277
     22 H           7.1962   -1.3100    0.0000 H       1  UNL1        0.1222
     23 H           5.1350    0.1200    0.0000 H       1  UNL1        0.0594
     24 H           8.2742   -0.7726    0.0000 H       1  UNL1        0.0424
     25 H           8.6728   -0.0823    0.0000 H       1  UNL1        0.0424
     26 H           3.3335   -1.1650    0.0000 H       1  UNL1        0.0290
     27 H           4.1306   -1.1650    0.0000 H       1  UNL1        0.0290
     28 H           3.2646    0.2849    0.0000 H       1  UNL1        0.0263
     29 H           2.4675    0.2849    0.0000 H       1  UNL1        0.0263
     30 H           4.0611    1.1200    0.0000 H       1  UNL1        0.2098
     31 H           1.6900   -0.1531    0.0000 H       1  UNL1        0.0230
     32 H           1.4631   -1.0000    0.0000 H       1  UNL1        0.0230
     33 H           2.3100   -1.2269    0.0000 H       1  UNL1        0.0230
@<TRIPOS>BOND
     1     9     1    1
     2     1    30    1
     3     2     3    1
     4     2     8    1
     5     2    22    1
     6     3     4    1
     7     3     5    1
     8     3    13    1
     9     4     6    1
    10     4    14    1
    11     4    15    1
    12     5     9    1
    13     5    16    1
    14     5    17    1
    15     6     7    1
    16     6    18    1
    17     6    19    1
    18     7     8    1
    19     7    20    1
    20     7    21    1
    21     8    24    1
    22     8    25    1
    23     9    10    1
    24     9    23    1
    25    10    11    1
    26    10    26    1
    27    10    27    1
    28    11    12    1
    29    11    28    1
    30    11    29    1
    31    12    31    1
    32    12    32    1
    33    12    33    1
