@<TRIPOS>MOLECULE
IMPHY013409
 73 77 0 0 0
SMALL
GASTEIGER

@<TRIPOS>ATOM
      1 O          10.3897   -0.5219    0.0000 O.3     1  UNL1       -0.3609
      2 O           6.0595   -2.0219    0.0000 O.3     1  UNL1       -0.3313
      3 O           7.7916   -2.0219    0.0000 O.3     1  UNL1       -0.4602
      4 O           8.6576   -2.5219    0.0000 O.3     1  UNL1       -0.3862
      5 O          10.3897   -3.5219    0.0000 O.3     1  UNL1       -0.3865
      6 O          12.1217   -2.5219    0.0000 O.3     1  UNL1       -0.3865
      7 O           6.0595   -5.0219    0.0000 O.3     1  UNL1       -0.3864
      8 O           7.7916   -4.0219    0.0000 O.3     1  UNL1       -0.3829
      9 O           4.3275   -4.0219    0.0000 O.3     1  UNL1       -0.3865
     10 O          12.9877   -1.0219    0.0000 O.3     1  UNL1       -0.3924
     11 O           9.5236    0.9781    0.0000 O.3     1  UNL1       -0.5054
     12 O           6.0156    0.9849    0.0000 O.2     1  UNL1       -0.4544
     13 O           3.4614   -2.5219    0.0000 O.3     1  UNL1       -0.3924
     14 O           8.6794    2.5096    0.0000 O.2     1  UNL1       -0.2869
     15 O           4.2639    5.0198    0.0000 O.3     1  UNL1       -0.5033
     16 O           2.5357    4.0132    0.0000 O.3     1  UNL1       -0.5033
     17 C           9.5236   -1.0219    0.0000 C.3     1  UNL1        0.1193
     18 C           9.5236   -2.0219    0.0000 C.3     1  UNL1        0.1139
     19 C          10.3897   -2.5219    0.0000 C.3     1  UNL1        0.1121
     20 C          11.2557   -2.0219    0.0000 C.3     1  UNL1        0.1117
     21 C          11.2557   -1.0219    0.0000 C.3     1  UNL1        0.1108
     22 C           8.6576   -0.5219    0.0000 C.ar    1  UNL1        0.0677
     23 C           6.0595   -4.0219    0.0000 C.3     1  UNL1        0.1152
     24 C           6.9256   -3.5219    0.0000 C.3     1  UNL1        0.1454
     25 C           5.1935   -3.5219    0.0000 C.3     1  UNL1        0.1120
     26 C           6.9256   -2.5219    0.0000 C.3     1  UNL1        0.2308
     27 C           5.1935   -2.5219    0.0000 C.3     1  UNL1        0.1140
     28 C           7.7916   -1.0219    0.0000 C.ar    1  UNL1        0.1367
     29 C          12.1217   -0.5219    0.0000 C.3     1  UNL1        0.0729
     30 C           8.6576    0.4781    0.0000 C.ar    1  UNL1        0.1404
     31 C           4.3275   -2.0219    0.0000 C.3     1  UNL1        0.0731
     32 C           6.9256   -0.5219    0.0000 C.ar    1  UNL1        0.0238
     33 C           7.7916    0.9781    0.0000 C.ar    1  UNL1        0.1058
     34 C           6.9256    0.4781    0.0000 C.ar    1  UNL1        0.1463
     35 C           7.8076    2.0196    0.0000 C.ar    1  UNL1        0.1966
     36 C           6.0075    2.0265    0.0000 C.ar    1  UNL1        0.1393
     37 C           6.9096    2.5473    0.0000 C.ar    1  UNL1        0.0288
     38 C           5.1396    2.5232    0.0000 C.ar    1  UNL1        0.0211
     39 C           5.1357    3.5232    0.0000 C.ar    1  UNL1       -0.0059
     40 C           4.2755    2.0199    0.0000 C.ar    1  UNL1       -0.0474
     41 C           4.2678    4.0198    0.0000 C.ar    1  UNL1        0.1589
     42 C           3.4075    2.5165    0.0000 C.ar    1  UNL1       -0.0159
     43 C           3.4037    3.5165    0.0000 C.ar    1  UNL1        0.1583
     44 H           9.5236   -0.1719    0.0000 H       1  UNL1        0.0676
     45 H           8.9867   -1.7119    0.0000 H       1  UNL1        0.0649
     46 H           9.8527   -2.8319    0.0000 H       1  UNL1        0.0647
     47 H          11.7926   -1.7119    0.0000 H       1  UNL1        0.0647
     48 H          11.2557   -0.4019    0.0000 H       1  UNL1        0.0646
     49 H           5.5226   -4.3319    0.0000 H       1  UNL1        0.0648
     50 H           6.9256   -4.1419    0.0000 H       1  UNL1        0.0683
     51 H           5.1935   -4.1419    0.0000 H       1  UNL1        0.0647
     52 H           6.9256   -1.9019    0.0000 H       1  UNL1        0.1084
     53 H           5.1935   -1.9019    0.0000 H       1  UNL1        0.0647
     54 H          12.5202   -0.0470    0.0000 H       1  UNL1        0.0584
     55 H          11.7232   -0.0470    0.0000 H       1  UNL1        0.0584
     56 H           4.7260   -1.5470    0.0000 H       1  UNL1        0.0584
     57 H           3.9290   -1.5470    0.0000 H       1  UNL1        0.0584
     58 H           8.6576   -3.1419    0.0000 H       1  UNL1        0.2100
     59 H          10.9266   -3.8319    0.0000 H       1  UNL1        0.2100
     60 H          12.1217   -3.1419    0.0000 H       1  UNL1        0.2100
     61 H           6.3886   -0.8319    0.0000 H       1  UNL1        0.0691
     62 H           5.5226   -5.3319    0.0000 H       1  UNL1        0.2100
     63 H           7.7916   -4.6419    0.0000 H       1  UNL1        0.2102
     64 H           4.3275   -4.6419    0.0000 H       1  UNL1        0.2100
     65 H          13.5247   -0.7119    0.0000 H       1  UNL1        0.2095
     66 H           9.5236    1.5981    0.0000 H       1  UNL1        0.2922
     67 H           2.9245   -2.2119    0.0000 H       1  UNL1        0.2095
     68 H           6.9120    3.1674    0.0000 H       1  UNL1        0.0693
     69 H           5.6715    3.8353    0.0000 H       1  UNL1        0.0662
     70 H           4.2779    1.3999    0.0000 H       1  UNL1        0.0626
     71 H           2.8718    2.2044    0.0000 H       1  UNL1        0.0655
     72 H           4.7997    5.3319    0.0000 H       1  UNL1        0.2923
     73 H           2.0000    3.7011    0.0000 H       1  UNL1        0.2923
@<TRIPOS>BOND
     1     1    17    1
     2     1    21    1
     3     2    26    1
     4     2    27    1
     5     3    26    1
     6     3    28    1
     7    18     4    1
     8     4    58    1
     9    19     5    1
    10     5    59    1
    11    20     6    1
    12     6    60    1
    13    23     7    1
    14     7    62    1
    15    24     8    1
    16     8    63    1
    17    25     9    1
    18     9    64    1
    19    10    29    1
    20    10    65    1
    21    11    30    1
    22    11    66    1
    23    12    34   ar
    24    12    36   ar
    25    13    31    1
    26    13    67    1
    27    14    35    2
    28    15    41    1
    29    15    72    1
    30    16    43    1
    31    16    73    1
    32    17    18    1
    33    17    22    1
    34    17    44    1
    35    18    19    1
    36    18    45    1
    37    19    20    1
    38    19    46    1
    39    20    21    1
    40    20    47    1
    41    21    29    1
    42    21    48    1
    43    22    28   ar
    44    22    30   ar
    45    23    24    1
    46    23    25    1
    47    23    49    1
    48    24    26    1
    49    24    50    1
    50    25    27    1
    51    25    51    1
    52    26    52    1
    53    27    31    1
    54    27    53    1
    55    28    32   ar
    56    29    54    1
    57    29    55    1
    58    30    33   ar
    59    31    56    1
    60    31    57    1
    61    32    34   ar
    62    32    61    1
    63    33    34   ar
    64    33    35   ar
    65    35    37   ar
    66    36    37   ar
    67    36    38    1
    68    37    68    1
    69    38    39   ar
    70    38    40   ar
    71    39    41   ar
    72    39    69    1
    73    40    42   ar
    74    40    70    1
    75    41    43   ar
    76    42    43   ar
    77    42    71    1
