@<TRIPOS>MOLECULE
IMPHY015989
 26 28 0 0 0
SMALL
GASTEIGER

@<TRIPOS>ATOM
      1 O           6.0682   -1.6581    0.0000 O.2     1  UNL1       -0.4542
      2 O           7.8167    1.3765    0.0000 O.3     1  UNL1       -0.5058
      3 O           6.0682    1.3419    0.0000 O.2     1  UNL1       -0.2863
      4 O           9.5984   -1.6822    0.0000 O.3     1  UNL1       -0.5065
      5 O           2.5381   -1.6822    0.0000 O.3     1  UNL1       -0.5066
      6 C           6.9343   -0.1581    0.0000 C.ar    1  UNL1        0.1061
      7 C           5.2022   -0.1581    0.0000 C.ar    1  UNL1        0.0649
      8 C           6.9343   -1.1581    0.0000 C.ar    1  UNL1        0.1463
      9 C           5.2022   -1.1581    0.0000 C.ar    1  UNL1        0.1427
     10 C           6.0682    0.3419    0.0000 C.ar    1  UNL1        0.2037
     11 C           7.8282    0.3766    0.0000 C.ar    1  UNL1        0.1347
     12 C           7.8282   -1.6927    0.0000 C.ar    1  UNL1        0.0231
     13 C           4.3083    0.3766    0.0000 C.ar    1  UNL1       -0.0439
     14 C           4.3083   -1.6927    0.0000 C.ar    1  UNL1        0.0229
     15 C           8.7343   -0.1372    0.0000 C.ar    1  UNL1        0.0223
     16 C           8.7343   -1.1789    0.0000 C.ar    1  UNL1        0.1239
     17 C           3.4022   -1.1789    0.0000 C.ar    1  UNL1        0.1204
     18 C           3.4022   -0.1372    0.0000 C.ar    1  UNL1       -0.0193
     19 H           7.8210   -2.3127    0.0000 H       1  UNL1        0.0691
     20 H           4.3154    0.9966    0.0000 H       1  UNL1        0.0627
     21 H           4.3154   -2.3127    0.0000 H       1  UNL1        0.0691
     22 H           9.2700    0.1748    0.0000 H       1  UNL1        0.0691
     23 H           2.8665    0.1748    0.0000 H       1  UNL1        0.0654
     24 H           8.3500    1.6927    0.0000 H       1  UNL1        0.2922
     25 H          10.1365   -1.3743    0.0000 H       1  UNL1        0.2921
     26 H           2.0000   -1.3743    0.0000 H       1  UNL1        0.2921
@<TRIPOS>BOND
     1     1     8   ar
     2     1     9   ar
     3     2    11    1
     4     2    24    1
     5     3    10    2
     6     4    16    1
     7     4    25    1
     8     5    17    1
     9     5    26    1
    10     6     8   ar
    11     6    10   ar
    12     6    11   ar
    13     7     9   ar
    14     7    10   ar
    15     7    13   ar
    16     8    12   ar
    17     9    14   ar
    18    11    15   ar
    19    12    16   ar
    20    12    19    1
    21    13    18   ar
    22    13    20    1
    23    14    17   ar
    24    14    21    1
    25    15    16   ar
    26    15    22    1
    27    17    18   ar
    28    18    23    1
