@<TRIPOS>MOLECULE
IMPHY001236
 96 100 0 0 0
SMALL
GASTEIGER

@<TRIPOS>ATOM
      1 O           6.9993   -1.8143    0.0000 O.3     1  UNL1       -0.3335
      2 O           7.9993   -2.8143    0.0000 O.3     1  UNL1       -0.3108
      3 O           6.2673   -2.8143    0.0000 O.3     1  UNL1       -0.3404
      4 O           9.2594   -0.5542    0.0000 O.3     1  UNL1       -0.4500
      5 O           7.4993    0.7246    0.0000 O.3     1  UNL1       -0.3852
      6 O           9.6935   -1.4542    0.0000 O.3     1  UNL1       -0.4560
      7 O           7.9993   -4.8143    0.0000 O.3     1  UNL1       -0.3841
      8 O           6.2673   -5.8143    0.0000 O.3     1  UNL1       -0.3864
      9 O           4.5352   -4.8143    0.0000 O.3     1  UNL1       -0.3865
     10 O           5.5313    0.4239    0.0000 O.3     1  UNL1       -0.4589
     11 O           3.6692   -3.3143    0.0000 O.3     1  UNL1       -0.3924
     12 O           8.7242    1.0931    0.0000 O.2     1  UNL1       -0.2456
     13 O          10.8525   -2.7413    0.0000 O.2     1  UNL1       -0.2456
     14 O           3.8371    0.0638    0.0000 O.2     1  UNL1       -0.2456
     15 O          14.4305    2.9472    0.0000 O.3     1  UNL1       -0.5068
     16 O          15.3113    1.2734    0.0000 O.3     1  UNL1       -0.5068
     17 O           2.5897    5.9327    0.0000 O.3     1  UNL1       -0.5068
     18 C           7.9993   -1.8143    0.0000 C.3     1  UNL1        0.2481
     19 C           8.3083   -0.8632    0.0000 C.3     1  UNL1        0.1884
     20 C           7.4993   -0.2754    0.0000 C.3     1  UNL1        0.1266
     21 C           6.6903   -0.8632    0.0000 C.3     1  UNL1        0.1255
     22 C           7.1333   -3.3143    0.0000 C.3     1  UNL1        0.1913
     23 C           7.1333   -4.3143    0.0000 C.3     1  UNL1        0.1342
     24 C           8.9504   -2.1233    0.0000 C.3     1  UNL1        0.1504
     25 C           6.2673   -4.8143    0.0000 C.3     1  UNL1        0.1141
     26 C           5.4012   -4.3143    0.0000 C.3     1  UNL1        0.1119
     27 C           5.4012   -3.3143    0.0000 C.3     1  UNL1        0.1130
     28 C           5.7392   -0.5542    0.0000 C.3     1  UNL1        0.1215
     29 C           4.5352   -2.8143    0.0000 C.3     1  UNL1        0.0730
     30 C           9.4673    0.4239    0.0000 C.2     1  UNL1        0.3325
     31 C          10.6446   -1.7632    0.0000 C.2     1  UNL1        0.3321
     32 C           4.5803    0.7329    0.0000 C.2     1  UNL1        0.3320
     33 C          10.4184    0.7329    0.0000 C.2     1  UNL1        0.0231
     34 C          11.3877   -1.0941    0.0000 C.2     1  UNL1        0.0231
     35 C           4.3724    1.7111    0.0000 C.2     1  UNL1        0.0231
     36 C          10.6263    1.7111    0.0000 C.2     1  UNL1       -0.0478
     37 C          12.3388   -1.4031    0.0000 C.2     1  UNL1       -0.0478
     38 C          11.5773    2.0201    0.0000 C.ar    1  UNL1       -0.0246
     39 C           3.4213    2.0201    0.0000 C.2     1  UNL1       -0.0478
     40 C          13.0819   -0.7340    0.0000 C.ar    1  UNL1       -0.0246
     41 C          12.3205    1.3510    0.0000 C.ar    1  UNL1       -0.0511
     42 C          11.7852    2.9983    0.0000 C.ar    1  UNL1       -0.0511
     43 C           3.2134    2.9983    0.0000 C.ar    1  UNL1       -0.0246
     44 C          14.0330   -1.0430    0.0000 C.ar    1  UNL1       -0.0511
     45 C          12.8740    0.2442    0.0000 C.ar    1  UNL1       -0.0511
     46 C          13.2715    1.6600    0.0000 C.ar    1  UNL1       -0.0196
     47 C          12.7363    3.3073    0.0000 C.ar    1  UNL1       -0.0196
     48 C           3.9565    3.6674    0.0000 C.ar    1  UNL1       -0.0511
     49 C           2.2623    3.3073    0.0000 C.ar    1  UNL1       -0.0511
     50 C          13.4794    2.6381    0.0000 C.ar    1  UNL1        0.1169
     51 C          14.7761   -0.3738    0.0000 C.ar    1  UNL1       -0.0196
     52 C          13.6171    0.9133    0.0000 C.ar    1  UNL1       -0.0196
     53 C          14.5682    0.6043    0.0000 C.ar    1  UNL1        0.1169
     54 C           3.7486    4.6455    0.0000 C.ar    1  UNL1       -0.0196
     55 C           2.0544    4.2854    0.0000 C.ar    1  UNL1       -0.0196
     56 C           2.7976    4.9546    0.0000 C.ar    1  UNL1        0.1169
     57 H           8.4053   -0.2509    0.0000 H       1  UNL1        0.0817
     58 H           8.0517    0.0060    0.0000 H       1  UNL1        0.0659
     59 H           6.2519   -1.3016    0.0000 H       1  UNL1        0.0658
     60 H           7.1333   -2.6943    0.0000 H       1  UNL1        0.0939
     61 H           7.1333   -4.9343    0.0000 H       1  UNL1        0.0671
     62 H           8.6593   -2.6707    0.0000 H       1  UNL1        0.0753
     63 H           9.4389   -2.5050    0.0000 H       1  UNL1        0.0753
     64 H           5.7303   -5.1243    0.0000 H       1  UNL1        0.0648
     65 H           4.8643   -4.0043    0.0000 H       1  UNL1        0.0647
     66 H           5.4012   -2.6943    0.0000 H       1  UNL1        0.0647
     67 H           5.1196   -0.5759    0.0000 H       1  UNL1        0.0725
     68 H           5.6530   -1.1682    0.0000 H       1  UNL1        0.0725
     69 H           6.9624    1.0346    0.0000 H       1  UNL1        0.2101
     70 H           4.9337   -2.3393    0.0000 H       1  UNL1        0.0584
     71 H           4.1367   -2.3393    0.0000 H       1  UNL1        0.0584
     72 H           7.9993   -5.4343    0.0000 H       1  UNL1        0.2101
     73 H           5.7303   -6.1243    0.0000 H       1  UNL1        0.2100
     74 H           4.5352   -5.4343    0.0000 H       1  UNL1        0.2100
     75 H           3.1322   -3.0043    0.0000 H       1  UNL1        0.2095
     76 H          10.8791    0.3181    0.0000 H       1  UNL1        0.0689
     77 H          11.2588   -0.4876    0.0000 H       1  UNL1        0.0689
     78 H           4.8331    2.1260    0.0000 H       1  UNL1        0.0689
     79 H          10.1655    2.1260    0.0000 H       1  UNL1        0.0626
     80 H          12.4677   -2.0095    0.0000 H       1  UNL1        0.0626
     81 H           2.9606    1.6052    0.0000 H       1  UNL1        0.0626
     82 H          12.1916    0.7445    0.0000 H       1  UNL1        0.0625
     83 H          11.3245    3.4131    0.0000 H       1  UNL1        0.0625
     84 H          14.1619   -1.6494    0.0000 H       1  UNL1        0.0625
     85 H          12.2843    0.4358    0.0000 H       1  UNL1        0.0625
     86 H          13.7323    1.2451    0.0000 H       1  UNL1        0.0654
     87 H          12.8652    3.9137    0.0000 H       1  UNL1        0.0654
     88 H           4.5462    3.4758    0.0000 H       1  UNL1        0.0625
     89 H           1.8016    2.8924    0.0000 H       1  UNL1        0.0625
     90 H          15.3658   -0.5654    0.0000 H       1  UNL1        0.0654
     91 H          13.4882    1.5198    0.0000 H       1  UNL1        0.0654
     92 H           4.2094    5.0604    0.0000 H       1  UNL1        0.0654
     93 H           1.4648    4.4770    0.0000 H       1  UNL1        0.0654
     94 H          14.5594    3.5536    0.0000 H       1  UNL1        0.2921
     95 H          15.9010    1.0818    0.0000 H       1  UNL1        0.2921
     96 H           2.0000    6.1243    0.0000 H       1  UNL1        0.2921
@<TRIPOS>BOND
     1     1    18    1
     2     1    21    1
     3    18     2    1
     4    22     2    1
     5     3    22    1
     6     3    27    1
     7    19     4    1
     8     4    30    1
     9    20     5    1
    10     5    69    1
    11     6    24    1
    12     6    31    1
    13    23     7    1
    14     7    72    1
    15    25     8    1
    16     8    73    1
    17    26     9    1
    18     9    74    1
    19    10    28    1
    20    10    32    1
    21    11    29    1
    22    11    75    1
    23    12    30    2
    24    13    31    2
    25    14    32    2
    26    15    50    1
    27    15    94    1
    28    16    53    1
    29    16    95    1
    30    17    56    1
    31    17    96    1
    32    18    19    1
    33    18    24    1
    34    19    20    1
    35    19    57    1
    36    20    21    1
    37    20    58    1
    38    21    28    1
    39    21    59    1
    40    22    23    1
    41    22    60    1
    42    23    25    1
    43    23    61    1
    44    24    62    1
    45    24    63    1
    46    25    26    1
    47    25    64    1
    48    26    27    1
    49    26    65    1
    50    27    29    1
    51    27    66    1
    52    28    67    1
    53    28    68    1
    54    29    70    1
    55    29    71    1
    56    30    33    1
    57    31    34    1
    58    32    35    1
    59    33    36    2
    60    33    76    1
    61    34    37    2
    62    34    77    1
    63    35    39    2
    64    35    78    1
    65    36    38    1
    66    36    79    1
    67    37    40    1
    68    37    80    1
    69    38    41   ar
    70    38    42   ar
    71    39    43    1
    72    39    81    1
    73    40    44   ar
    74    40    45   ar
    75    41    46   ar
    76    41    82    1
    77    42    47   ar
    78    42    83    1
    79    43    48   ar
    80    43    49   ar
    81    44    51   ar
    82    44    84    1
    83    45    52   ar
    84    45    85    1
    85    46    50   ar
    86    46    86    1
    87    47    50   ar
    88    47    87    1
    89    48    54   ar
    90    48    88    1
    91    49    55   ar
    92    49    89    1
    93    51    53   ar
    94    51    90    1
    95    52    53   ar
    96    52    91    1
    97    54    56   ar
    98    54    92    1
    99    55    56   ar
   100    55    93    1
