@<TRIPOS>MOLECULE
IMPHY014469
 29 31 0 0 0
SMALL
GASTEIGER

@<TRIPOS>ATOM
      1 O           6.0682   -0.9879    0.0000 O.2     1  UNL1       -0.4545
      2 O           9.5984   -1.0121    0.0000 O.3     1  UNL1       -0.4913
      3 O           6.0682    2.0121    0.0000 O.2     1  UNL1       -0.2864
      4 O           9.5984    1.0362    0.0000 O.3     1  UNL1       -0.5033
      5 O           2.5381    1.0362    0.0000 O.3     1  UNL1       -0.5067
      6 C           6.9343    0.5121    0.0000 C.ar    1  UNL1        0.0683
      7 C           5.2022    0.5121    0.0000 C.ar    1  UNL1        0.0680
      8 C           6.9343   -0.4879    0.0000 C.ar    1  UNL1        0.1430
      9 C           5.2022   -0.4879    0.0000 C.ar    1  UNL1        0.1395
     10 C           6.0682    1.0121    0.0000 C.ar    1  UNL1        0.2004
     11 C           7.8282    1.0467    0.0000 C.ar    1  UNL1       -0.0022
     12 C           7.8282   -1.0226    0.0000 C.ar    1  UNL1        0.0267
     13 C           8.7343   -0.5087    0.0000 C.ar    1  UNL1        0.1648
     14 C           4.3083    1.0467    0.0000 C.ar    1  UNL1       -0.0058
     15 C           8.7343    0.5329    0.0000 C.ar    1  UNL1        0.1594
     16 C           4.3083   -1.0226    0.0000 C.ar    1  UNL1       -0.0152
     17 C           3.4022    0.5329    0.0000 C.ar    1  UNL1        0.1178
     18 C           3.4022   -0.5087    0.0000 C.ar    1  UNL1       -0.0167
     19 C           9.5945   -2.0121    0.0000 C.3     1  UNL1        0.0790
     20 H           7.8210    1.6667    0.0000 H       1  UNL1        0.0663
     21 H           7.8210   -1.6426    0.0000 H       1  UNL1        0.0692
     22 H           4.3154    1.6667    0.0000 H       1  UNL1        0.0662
     23 H           4.3154   -1.6426    0.0000 H       1  UNL1        0.0656
     24 H           2.8665   -0.8208    0.0000 H       1  UNL1        0.0655
     25 H           9.5960    1.6562    0.0000 H       1  UNL1        0.2923
     26 H           8.9745   -2.0097    0.0000 H       1  UNL1        0.0660
     27 H           9.5921   -2.6321    0.0000 H       1  UNL1        0.0660
     28 H          10.2145   -2.0145    0.0000 H       1  UNL1        0.0660
     29 H           2.0000    0.7283    0.0000 H       1  UNL1        0.2921
@<TRIPOS>BOND
     1     1     8   ar
     2     1     9   ar
     3     2    13    1
     4     2    19    1
     5     3    10    2
     6     4    15    1
     7     4    25    1
     8     5    17    1
     9     5    29    1
    10     6     8   ar
    11     6    10   ar
    12     6    11   ar
    13     7     9   ar
    14     7    10   ar
    15     7    14   ar
    16     8    12   ar
    17     9    16   ar
    18    11    15   ar
    19    11    20    1
    20    12    13   ar
    21    12    21    1
    22    13    15   ar
    23    14    17   ar
    24    14    22    1
    25    16    18   ar
    26    16    23    1
    27    17    18   ar
    28    18    24    1
    29    19    26    1
    30    19    27    1
    31    19    28    1
