@<TRIPOS>MOLECULE
IMPHY014675
 15 14 0 0 0
SMALL
GASTEIGER

@<TRIPOS>ATOM
      1 O           2.0000    0.4050    0.0000 O.co2   1  UNL1       -0.5417
      2 O           2.8660   -1.0950    0.0000 O.2     1  UNL1        0.0837
      3 O           7.1962    0.4050    0.0000 O.2     1  UNL1       -0.1094
      4 N           5.4641    0.4050    0.0000 N.pl3   1  UNL1       -0.1030
      5 N           3.7320    0.4050    0.0000 N.pl3   1  UNL1        0.0266
      6 N           2.8660   -0.0950    0.0000 N.pl3   1  UNL1        0.2322
      7 N           4.5981   -1.0950    0.0000 N.pl3   1  UNL1       -0.1230
      8 N           6.3301   -0.0950    0.0000 N.2     1  UNL1        0.1225
      9 C           4.5981   -0.0950    0.0000 C.cat   1  UNL1        0.4679
     10 C           5.4641    1.4050    0.0000 C.3     1  UNL1        0.0864
     11 H           6.0841    1.4050    0.0000 H       1  UNL1        0.0645
     12 H           5.4641    2.0250    0.0000 H       1  UNL1        0.0645
     13 H           4.8441    1.4050    0.0000 H       1  UNL1        0.0645
     14 H           3.7320    1.0250    0.0000 H       1  UNL1        0.3478
     15 H           5.1350   -1.4050    0.0000 H       1  UNL1        0.3064
@<TRIPOS>UNITY_ATOM_ATTR
1 1
charge -1
6 1
charge 1
@<TRIPOS>BOND
     1     1     6    1
     2     2     6    2
     3     3     8    2
     4     4     8    1
     5     4     9    1
     6     4    10    1
     7     5     6    1
     8     5     9    1
     9     5    14    1
    10     7     9    2
    11     7    15    1
    12    10    11    1
    13    10    12    1
    14    10    13    1
