@<TRIPOS>MOLECULE
IMPHY008759
 136 144 0 0 0
SMALL
GASTEIGER

@<TRIPOS>ATOM
      1 O          14.7182   -2.9320    0.0000 O.3     1  UNL1       -0.3422
      2 O          12.6032   -4.2311    0.0000 O.3     1  UNL1       -0.3850
      3 O          14.6069   -4.9144    0.0000 O.3     1  UNL1       -0.3480
      4 O           5.8671   -0.0423    0.0000 O.3     1  UNL1       -0.3377
      5 O           6.8671   -1.0423    0.0000 O.3     1  UNL1       -0.3143
      6 O           8.3671    0.8237    0.0000 O.3     1  UNL1       -0.3374
      7 O           7.3671    2.5557    0.0000 O.3     1  UNL1       -0.3864
      8 O           5.3671    2.5557    0.0000 O.3     1  UNL1       -0.3865
      9 O           5.1350   -1.0423    0.0000 O.3     1  UNL1       -0.3404
     10 O           8.3671    2.5557    0.0000 O.3     1  UNL1       -0.3405
     11 O           3.8671    1.6897    0.0000 O.3     1  UNL1       -0.3924
     12 O           6.8671   -3.0423    0.0000 O.3     1  UNL1       -0.3841
     13 O           5.1350   -4.0423    0.0000 O.3     1  UNL1       -0.3864
     14 O          10.3671    0.8237    0.0000 O.3     1  UNL1       -0.3841
     15 O           3.4030   -3.0423    0.0000 O.3     1  UNL1       -0.3865
     16 O          11.3671    2.5557    0.0000 O.3     1  UNL1       -0.3864
     17 O          10.3671    4.2878    0.0000 O.3     1  UNL1       -0.3865
     18 O           2.5369   -1.5423    0.0000 O.3     1  UNL1       -0.3924
     19 O           8.8671    5.1538    0.0000 O.3     1  UNL1       -0.3924
     20 C          12.2483   -3.1154    0.0000 C.3     1  UNL1        0.0028
     21 C          12.2522   -2.1154    0.0000 C.3     1  UNL1       -0.0271
     22 C          13.1934   -3.4238    0.0000 C.3     1  UNL1        0.1051
     23 C          11.3881   -1.6121    0.0000 C.3     1  UNL1       -0.0305
     24 C          13.7801   -2.6213    0.0000 C.3     1  UNL1        0.0918
     25 C          10.5202   -2.1088    0.0000 C.3     1  UNL1       -0.0285
     26 C          13.1996   -1.8144    0.0000 C.3     1  UNL1       -0.0201
     27 C          11.3804   -3.6121    0.0000 C.3     1  UNL1       -0.0444
     28 C          13.7739   -4.2235    0.0000 C.3     1  UNL1        0.0421
     29 C          10.5163   -3.1088    0.0000 C.3     1  UNL1       -0.0486
     30 C           9.6121   -1.5984    0.0000 C.3     1  UNL1       -0.0080
     31 C          14.7144   -3.9201    0.0000 C.3     1  UNL1        0.1757
     32 C          11.9028   -4.0538    0.0000 C.3     1  UNL1       -0.0566
     33 C          11.4082   -0.5707    0.0000 C.3     1  UNL1       -0.0311
     34 C           9.6081   -0.5568    0.0000 C.2     1  UNL1       -0.0668
     35 C           8.6831   -2.1589    0.0000 C.3     1  UNL1       -0.0432
     36 C          13.4637   -5.1742    0.0000 C.3     1  UNL1       -0.0548
     37 C          10.5122   -0.0395    0.0000 C.2     1  UNL1       -0.0839
     38 C          15.6291   -3.5161    0.0000 C.3     1  UNL1        0.0021
     39 C           9.6160   -2.5984    0.0000 C.3     1  UNL1       -0.0556
     40 C           8.6748   -0.0035    0.0000 C.3     1  UNL1       -0.0234
     41 C           7.7331   -0.5423    0.0000 C.3     1  UNL1        0.0196
     42 C           7.7373   -1.6273    0.0000 C.3     1  UNL1       -0.0441
     43 C          16.4364   -4.1063    0.0000 C.3     1  UNL1       -0.0435
     44 C          15.4141   -5.5046    0.0000 C.3     1  UNL1        0.0535
     45 C           6.8671   -0.0423    0.0000 C.3     1  UNL1        0.2052
     46 C          16.3289   -5.1005    0.0000 C.3     1  UNL1       -0.0201
     47 C           7.3671    0.8237    0.0000 C.3     1  UNL1        0.1440
     48 C          17.1362   -5.6907    0.0000 C.3     1  UNL1       -0.0603
     49 C           6.8671    1.6897    0.0000 C.3     1  UNL1        0.1147
     50 C           5.3671    0.8237    0.0000 C.3     1  UNL1        0.1133
     51 C           5.8671    1.6897    0.0000 C.3     1  UNL1        0.1119
     52 C           6.0010   -1.5423    0.0000 C.3     1  UNL1        0.1912
     53 C           4.3671    0.8237    0.0000 C.3     1  UNL1        0.0730
     54 C           8.8671    1.6897    0.0000 C.3     1  UNL1        0.1886
     55 C           6.0010   -2.5423    0.0000 C.3     1  UNL1        0.1342
     56 C           5.1350   -3.0423    0.0000 C.3     1  UNL1        0.1141
     57 C           9.8671    1.6897    0.0000 C.3     1  UNL1        0.1341
     58 C           4.2690   -1.5423    0.0000 C.3     1  UNL1        0.1130
     59 C           4.2690   -2.5423    0.0000 C.3     1  UNL1        0.1119
     60 C          10.3671    2.5557    0.0000 C.3     1  UNL1        0.1141
     61 C           8.8671    3.4218    0.0000 C.3     1  UNL1        0.1130
     62 C           9.8671    3.4218    0.0000 C.3     1  UNL1        0.1119
     63 C           3.4030   -1.0423    0.0000 C.3     1  UNL1        0.0730
     64 C           8.3671    4.2878    0.0000 C.3     1  UNL1        0.0730
     65 H          12.3202   -1.4992    0.0000 H       1  UNL1        0.0311
     66 H          11.9286   -1.3083    0.0000 H       1  UNL1        0.0310
     67 H          14.2832   -1.9363    0.0000 H       1  UNL1        0.0626
     68 H          11.0559   -2.4208    0.0000 H       1  UNL1        0.0312
     69 H          13.7382   -1.5072    0.0000 H       1  UNL1        0.0294
     70 H          12.9507   -1.2465    0.0000 H       1  UNL1        0.0294
     71 H          10.9800   -4.0855    0.0000 H       1  UNL1        0.0272
     72 H          11.7771   -4.0886    0.0000 H       1  UNL1        0.0272
     73 H          13.1615   -4.3200    0.0000 H       1  UNL1        0.0379
     74 H           9.9061   -2.9987    0.0000 H       1  UNL1        0.0268
     75 H          10.3020   -3.6906    0.0000 H       1  UNL1        0.0268
     76 H          11.3210   -3.8396    0.0000 H       1  UNL1        0.0236
     77 H          11.6886   -4.6356    0.0000 H       1  UNL1        0.0236
     78 H          12.4846   -4.2681    0.0000 H       1  UNL1        0.0236
     79 H          12.0169   -0.6885    0.0000 H       1  UNL1        0.0310
     80 H          11.6284    0.0089    0.0000 H       1  UNL1        0.0310
     81 H           8.2913   -2.6395    0.0000 H       1  UNL1        0.0274
     82 H           9.0895   -2.6272    0.0000 H       1  UNL1        0.0274
     83 H          12.8537   -4.7982    0.0000 H       1  UNL1        0.2103
     84 H          12.8743   -4.9818    0.0000 H       1  UNL1        0.0235
     85 H          13.2714   -5.7636    0.0000 H       1  UNL1        0.0235
     86 H          14.0531   -5.3665    0.0000 H       1  UNL1        0.0235
     87 H          10.5170    0.5805    0.0000 H       1  UNL1        0.0572
     88 H          16.0764   -3.0868    0.0000 H       1  UNL1        0.0317
     89 H          15.2840   -3.0011    0.0000 H       1  UNL1        0.0317
     90 H           8.9960   -2.6008    0.0000 H       1  UNL1        0.0238
     91 H           9.6184   -3.2184    0.0000 H       1  UNL1        0.0238
     92 H          10.2360   -2.5960    0.0000 H       1  UNL1        0.0238
     93 H           9.0776    0.4679    0.0000 H       1  UNL1        0.0315
     94 H           8.2793    0.4740    0.0000 H       1  UNL1        0.0315
     95 H           7.7343    0.0777    0.0000 H       1  UNL1        0.0357
     96 H           7.1260   -1.5236    0.0000 H       1  UNL1        0.0270
     97 H           7.5305   -2.2118    0.0000 H       1  UNL1        0.0270
     98 H          17.0319   -4.2790    0.0000 H       1  UNL1        0.0270
     99 H          16.7099   -3.5499    0.0000 H       1  UNL1        0.0270
    100 H          14.9669   -5.9339    0.0000 H       1  UNL1        0.0563
    101 H          15.7593   -6.0196    0.0000 H       1  UNL1        0.0563
    102 H          16.2622   -5.7170    0.0000 H       1  UNL1        0.0320
    103 H           7.6771    1.3606    0.0000 H       1  UNL1        0.0678
    104 H          16.7702   -6.1912    0.0000 H       1  UNL1        0.0233
    105 H          17.6367   -6.0567    0.0000 H       1  UNL1        0.0233
    106 H          17.5021   -5.1902    0.0000 H       1  UNL1        0.0233
    107 H           6.5571    2.2266    0.0000 H       1  UNL1        0.0648
    108 H           5.0571    0.2867    0.0000 H       1  UNL1        0.0647
    109 H           5.2471    1.6897    0.0000 H       1  UNL1        0.0647
    110 H           6.5380   -1.8523    0.0000 H       1  UNL1        0.0939
    111 H           3.7844    0.6116    0.0000 H       1  UNL1        0.0584
    112 H           4.4747    0.2131    0.0000 H       1  UNL1        0.0584
    113 H           8.2471    1.6897    0.0000 H       1  UNL1        0.0938
    114 H           6.0010   -3.1623    0.0000 H       1  UNL1        0.0671
    115 H           7.0571    3.0927    0.0000 H       1  UNL1        0.2100
    116 H           5.6771    3.0927    0.0000 H       1  UNL1        0.2100
    117 H           4.5981   -3.3523    0.0000 H       1  UNL1        0.0648
    118 H          10.4871    1.6897    0.0000 H       1  UNL1        0.0671
    119 H           4.2690   -0.9223    0.0000 H       1  UNL1        0.0647
    120 H           3.7320   -2.2323    0.0000 H       1  UNL1        0.0647
    121 H           3.2471    1.6897    0.0000 H       1  UNL1        0.2095
    122 H          10.6771    3.0927    0.0000 H       1  UNL1        0.0648
    123 H           6.8671   -3.6623    0.0000 H       1  UNL1        0.2101
    124 H           8.2471    3.4218    0.0000 H       1  UNL1        0.0647
    125 H           9.5571    3.9587    0.0000 H       1  UNL1        0.0647
    126 H           3.8015   -0.5674    0.0000 H       1  UNL1        0.0584
    127 H           3.0044   -0.5674    0.0000 H       1  UNL1        0.0584
    128 H           4.5981   -4.3523    0.0000 H       1  UNL1        0.2100
    129 H          10.9871    0.8237    0.0000 H       1  UNL1        0.2101
    130 H           3.4030   -3.6623    0.0000 H       1  UNL1        0.2100
    131 H           7.8921    4.6863    0.0000 H       1  UNL1        0.0584
    132 H           7.8921    3.8892    0.0000 H       1  UNL1        0.0584
    133 H          11.6771    3.0927    0.0000 H       1  UNL1        0.2100
    134 H          10.9871    4.2878    0.0000 H       1  UNL1        0.2100
    135 H           2.0000   -1.2323    0.0000 H       1  UNL1        0.2095
    136 H           8.5571    5.6907    0.0000 H       1  UNL1        0.2095
@<TRIPOS>BOND
     1     1    24    1
     2     1    31    1
     3     2    22    1
     4     2    83    1
     5     3    31    1
     6     3    44    1
     7     4    45    1
     8     4    50    1
     9    45     5    1
    10    52     5    1
    11    47     6    1
    12    54     6    1
    13    49     7    1
    14     7   115    1
    15    51     8    1
    16     8   116    1
    17     9    52    1
    18     9    58    1
    19    10    54    1
    20    10    61    1
    21    11    53    1
    22    11   121    1
    23    55    12    1
    24    12   123    1
    25    56    13    1
    26    13   128    1
    27    57    14    1
    28    14   129    1
    29    59    15    1
    30    15   130    1
    31    60    16    1
    32    16   133    1
    33    62    17    1
    34    17   134    1
    35    18    63    1
    36    18   135    1
    37    19    64    1
    38    19   136    1
    39    20    21    1
    40    20    22    1
    41    20    27    1
    42    20    32    1
    43    21    23    1
    44    21    26    1
    45    21    65    1
    46    22    24    1
    47    22    28    1
    48    23    25    1
    49    23    33    1
    50    23    66    1
    51    24    26    1
    52    24    67    1
    53    25    29    1
    54    25    30    1
    55    25    68    1
    56    26    69    1
    57    26    70    1
    58    27    29    1
    59    27    71    1
    60    27    72    1
    61    28    31    1
    62    28    36    1
    63    28    73    1
    64    29    74    1
    65    29    75    1
    66    30    34    1
    67    30    35    1
    68    30    39    1
    69    31    38    1
    70    32    76    1
    71    32    77    1
    72    32    78    1
    73    33    37    1
    74    33    79    1
    75    33    80    1
    76    34    37    2
    77    34    40    1
    78    35    42    1
    79    35    81    1
    80    35    82    1
    81    36    84    1
    82    36    85    1
    83    36    86    1
    84    37    87    1
    85    38    43    1
    86    38    88    1
    87    38    89    1
    88    39    90    1
    89    39    91    1
    90    39    92    1
    91    40    41    1
    92    40    93    1
    93    40    94    1
    94    41    42    1
    95    41    45    1
    96    41    95    1
    97    42    96    1
    98    42    97    1
    99    43    46    1
   100    43    98    1
   101    43    99    1
   102    44    46    1
   103    44   100    1
   104    44   101    1
   105    45    47    1
   106    46    48    1
   107    46   102    1
   108    47    49    1
   109    47   103    1
   110    48   104    1
   111    48   105    1
   112    48   106    1
   113    49    51    1
   114    49   107    1
   115    50    51    1
   116    50    53    1
   117    50   108    1
   118    51   109    1
   119    52    55    1
   120    52   110    1
   121    53   111    1
   122    53   112    1
   123    54    57    1
   124    54   113    1
   125    55    56    1
   126    55   114    1
   127    56    59    1
   128    56   117    1
   129    57    60    1
   130    57   118    1
   131    58    59    1
   132    58    63    1
   133    58   119    1
   134    59   120    1
   135    60    62    1
   136    60   122    1
   137    61    62    1
   138    61    64    1
   139    61   124    1
   140    62   125    1
   141    63   126    1
   142    63   127    1
   143    64   131    1
   144    64   132    1
