@<TRIPOS>MOLECULE
IMPHY002698
 53 55 0 0 0
SMALL
GASTEIGER

@<TRIPOS>ATOM
      1 O           4.6587   -0.1537    0.0000 O.3     1  UNL1       -0.3636
      2 O           7.1998   -3.7415    0.0000 O.3     1  UNL1       -0.4913
      3 O           3.7357   -3.7415    0.0000 O.3     1  UNL1       -0.4913
      4 O           4.6056    4.2425    0.0000 O.3     1  UNL1       -0.4914
      5 O           5.4677   -4.7415    0.0000 O.3     1  UNL1       -0.5009
      6 O           2.6166    4.0334    0.0000 O.3     1  UNL1       -0.5033
      7 C           6.2768   -0.1537    0.0000 C.3     1  UNL1       -0.0081
      8 C           5.9677    0.7974    0.0000 C.3     1  UNL1       -0.0081
      9 C           5.4677   -0.7415    0.0000 C.3     1  UNL1        0.0875
     10 C           4.9677    0.7974    0.0000 C.3     1  UNL1        0.0874
     11 C           7.2278   -0.4627    0.0000 C.3     1  UNL1       -0.0594
     12 C           6.5555    1.6064    0.0000 C.3     1  UNL1       -0.0594
     13 C           5.4677   -1.7415    0.0000 C.ar    1  UNL1       -0.0115
     14 C           4.3800    1.6064    0.0000 C.ar    1  UNL1       -0.0149
     15 C           4.6017   -2.2415    0.0000 C.ar    1  UNL1       -0.0104
     16 C           6.3338   -2.2415    0.0000 C.ar    1  UNL1       -0.0104
     17 C           4.7867    2.5199    0.0000 C.ar    1  UNL1       -0.0107
     18 C           3.3854    1.5018    0.0000 C.ar    1  UNL1       -0.0524
     19 C           6.3338   -3.2415    0.0000 C.ar    1  UNL1        0.1653
     20 C           4.6017   -3.2415    0.0000 C.ar    1  UNL1        0.1653
     21 C           4.1989    3.3289    0.0000 C.ar    1  UNL1        0.1616
     22 C           2.7976    2.3109    0.0000 C.ar    1  UNL1       -0.0162
     23 C           5.4677   -3.7415    0.0000 C.ar    1  UNL1        0.2010
     24 C           3.2044    3.2244    0.0000 C.ar    1  UNL1        0.1585
     25 C           8.0658   -3.2415    0.0000 C.3     1  UNL1        0.0790
     26 C           2.8697   -3.2415    0.0000 C.3     1  UNL1        0.0790
     27 C           4.0179    5.0515    0.0000 C.3     1  UNL1        0.0790
     28 H           6.7152    0.2847    0.0000 H       1  UNL1        0.0330
     29 H           5.6863    1.3498    0.0000 H       1  UNL1        0.0330
     30 H           4.9153   -1.0230    0.0000 H       1  UNL1        0.0649
     31 H           4.3554    0.7004    0.0000 H       1  UNL1        0.0649
     32 H           7.0362   -1.0524    0.0000 H       1  UNL1        0.0233
     33 H           7.8175   -0.6543    0.0000 H       1  UNL1        0.0233
     34 H           7.4194    0.1269    0.0000 H       1  UNL1        0.0233
     35 H           7.0571    1.2419    0.0000 H       1  UNL1        0.0233
     36 H           6.9200    2.1080    0.0000 H       1  UNL1        0.0233
     37 H           6.0539    1.9708    0.0000 H       1  UNL1        0.0233
     38 H           4.0648   -1.9315    0.0000 H       1  UNL1        0.0659
     39 H           6.8707   -1.9315    0.0000 H       1  UNL1        0.0659
     40 H           5.4033    2.5847    0.0000 H       1  UNL1        0.0659
     41 H           3.1333    0.9354    0.0000 H       1  UNL1        0.0622
     42 H           2.1810    2.2460    0.0000 H       1  UNL1        0.0655
     43 H           4.9308   -5.0515    0.0000 H       1  UNL1        0.2924
     44 H           2.0000    3.9686    0.0000 H       1  UNL1        0.2923
     45 H           8.3758   -3.7784    0.0000 H       1  UNL1        0.0660
     46 H           8.6028   -2.9315    0.0000 H       1  UNL1        0.0660
     47 H           7.7558   -2.7046    0.0000 H       1  UNL1        0.0660
     48 H           3.1797   -2.7046    0.0000 H       1  UNL1        0.0660
     49 H           2.3327   -2.9315    0.0000 H       1  UNL1        0.0660
     50 H           2.5597   -3.7784    0.0000 H       1  UNL1        0.0660
     51 H           4.5194    5.4159    0.0000 H       1  UNL1        0.0660
     52 H           3.6534    5.5531    0.0000 H       1  UNL1        0.0660
     53 H           3.5163    4.6871    0.0000 H       1  UNL1        0.0660
@<TRIPOS>BOND
     1     1     9    1
     2     1    10    1
     3     2    19    1
     4     2    25    1
     5     3    20    1
     6     3    26    1
     7     4    21    1
     8     4    27    1
     9     5    23    1
    10     5    43    1
    11     6    24    1
    12     6    44    1
    13     7     8    1
    14     7     9    1
    15     7    11    1
    16     7    28    1
    17     8    10    1
    18     8    12    1
    19     8    29    1
    20     9    13    1
    21     9    30    1
    22    10    14    1
    23    10    31    1
    24    11    32    1
    25    11    33    1
    26    11    34    1
    27    12    35    1
    28    12    36    1
    29    12    37    1
    30    13    15   ar
    31    13    16   ar
    32    14    17   ar
    33    14    18   ar
    34    15    20   ar
    35    15    38    1
    36    16    19   ar
    37    16    39    1
    38    17    21   ar
    39    17    40    1
    40    18    22   ar
    41    18    41    1
    42    19    23   ar
    43    20    23   ar
    44    21    24   ar
    45    22    24   ar
    46    22    42    1
    47    25    45    1
    48    25    46    1
    49    25    47    1
    50    26    48    1
    51    26    49    1
    52    26    50    1
    53    27    51    1
    54    27    52    1
    55    27    53    1
