@<TRIPOS>MOLECULE
IMPHY001257
 114 119 0 0 0
SMALL
GASTEIGER

@<TRIPOS>ATOM
      1 O           6.0010   -1.2500    0.0000 O.3     1  UNL1       -0.3389
      2 O           6.0010    1.7500    0.0000 O.3     1  UNL1       -0.3394
      3 O           4.2690   -1.2500    0.0000 O.3     1  UNL1       -0.3431
      4 O           6.0010   -3.2500    0.0000 O.3     1  UNL1       -0.3378
      5 O           7.7331   -0.2500    0.0000 O.3     1  UNL1       -0.4528
      6 O           7.7331    2.7500    0.0000 O.3     1  UNL1       -0.3460
      7 O           4.2690   -0.2500    0.0000 O.3     1  UNL1       -0.3841
      8 O           4.2690    1.7500    0.0000 O.3     1  UNL1       -0.3484
      9 O           4.2690   -4.2500    0.0000 O.3     1  UNL1       -0.3864
     10 O           9.5127    2.8433    0.0000 O.3     1  UNL1       -0.3457
     11 O           2.5369   -3.2500    0.0000 O.3     1  UNL1       -0.3866
     12 O           5.1350   -4.7500    0.0000 O.3     1  UNL1       -0.3461
     13 O           9.4739    5.4306    0.0000 O.3     1  UNL1       -0.3812
     14 O           7.9605    4.9136    0.0000 O.3     1  UNL1       -0.3837
     15 O           7.7331   -4.2500    0.0000 O.3     1  UNL1       -0.3841
     16 O           7.7331   -6.2500    0.0000 O.3     1  UNL1       -0.3864
     17 O           6.0010   -7.2500    0.0000 O.3     1  UNL1       -0.3869
     18 O          10.5478    5.9524    0.0000 O.3     1  UNL1       -0.3920
     19 O           8.5991    1.2500    0.0000 O.2     1  UNL1       -0.2456
     20 O           5.1350    6.2500    0.0000 O.3     1  UNL1       -0.5033
     21 O           3.4030    7.2500    0.0000 O.3     1  UNL1       -0.5033
     22 O          12.0632   -2.7500    0.0000 O.3     1  UNL1       -0.5033
     23 O          13.7953   -1.7500    0.0000 O.3     1  UNL1       -0.5033
     24 C           6.0010   -0.2500    0.0000 C.3     1  UNL1        0.1316
     25 C           6.8671    0.2500    0.0000 C.3     1  UNL1        0.1602
     26 C           5.1350   -2.7500    0.0000 C.3     1  UNL1        0.1406
     27 C           5.1350   -1.7500    0.0000 C.3     1  UNL1        0.1887
     28 C           6.8671    1.2500    0.0000 C.3     1  UNL1        0.1244
     29 C           5.1350    0.2500    0.0000 C.3     1  UNL1        0.1355
     30 C           4.2690   -3.2500    0.0000 C.3     1  UNL1        0.1143
     31 C           3.4030   -2.7500    0.0000 C.3     1  UNL1        0.1095
     32 C           5.1350    1.2500    0.0000 C.3     1  UNL1        0.1880
     33 C           3.4030   -1.7500    0.0000 C.3     1  UNL1        0.0873
     34 C           7.7331    1.7500    0.0000 C.3     1  UNL1        0.0806
     35 C           6.0010   -4.2500    0.0000 C.3     1  UNL1        0.1881
     36 C           9.6818    4.4524    0.0000 C.3     1  UNL1        0.1425
     37 C           8.5991    3.2500    0.0000 C.3     1  UNL1        0.1880
     38 C           8.7036    4.2445    0.0000 C.3     1  UNL1        0.1387
     39 C           6.8671   -4.7500    0.0000 C.3     1  UNL1        0.1341
     40 C           2.5369   -1.2500    0.0000 C.3     1  UNL1       -0.0361
     41 C          10.1818    3.5864    0.0000 C.3     1  UNL1        0.0843
     42 C           6.8671   -5.7500    0.0000 C.3     1  UNL1        0.1137
     43 C           6.0010   -6.2500    0.0000 C.3     1  UNL1        0.1069
     44 C           5.1350   -5.7500    0.0000 C.3     1  UNL1        0.0792
     45 C          10.5478    4.9524    0.0000 C.3     1  UNL1        0.0778
     46 C           4.2690    2.7500    0.0000 C.3     1  UNL1        0.0547
     47 C           8.5991    0.2500    0.0000 C.2     1  UNL1        0.3324
     48 C           3.4030    3.2500    0.0000 C.3     1  UNL1       -0.0039
     49 C           9.4651   -0.2500    0.0000 C.2     1  UNL1        0.0231
     50 C           3.4030    4.2500    0.0000 C.ar    1  UNL1       -0.0415
     51 C          10.3312    0.2500    0.0000 C.2     1  UNL1       -0.0477
     52 C           4.2690    4.7500    0.0000 C.ar    1  UNL1       -0.0133
     53 C           2.5369    4.7500    0.0000 C.ar    1  UNL1       -0.0548
     54 C          11.1972   -0.2500    0.0000 C.ar    1  UNL1       -0.0211
     55 C           4.2690    5.7500    0.0000 C.ar    1  UNL1        0.1585
     56 C           2.5369    5.7500    0.0000 C.ar    1  UNL1       -0.0163
     57 C           3.4030    6.2500    0.0000 C.ar    1  UNL1        0.1582
     58 C          11.1972   -1.2500    0.0000 C.ar    1  UNL1       -0.0094
     59 C          12.0632    0.2500    0.0000 C.ar    1  UNL1       -0.0509
     60 C          12.0632   -1.7500    0.0000 C.ar    1  UNL1        0.1588
     61 C          12.9292   -0.2500    0.0000 C.ar    1  UNL1       -0.0160
     62 C          12.9292   -1.2500    0.0000 C.ar    1  UNL1        0.1582
     63 H           6.5380   -0.5600    0.0000 H       1  UNL1        0.0663
     64 H           7.4040    0.5600    0.0000 H       1  UNL1        0.0788
     65 H           5.1350   -3.3700    0.0000 H       1  UNL1        0.0675
     66 H           5.1350   -1.1300    0.0000 H       1  UNL1        0.0938
     67 H           6.8671    1.8700    0.0000 H       1  UNL1        0.0658
     68 H           5.1350   -0.3700    0.0000 H       1  UNL1        0.0671
     69 H           3.7320   -3.5600    0.0000 H       1  UNL1        0.0648
     70 H           2.8660   -2.4400    0.0000 H       1  UNL1        0.0646
     71 H           5.1350    1.8700    0.0000 H       1  UNL1        0.0937
     72 H           3.4030   -1.1300    0.0000 H       1  UNL1        0.0621
     73 H           7.9451    1.1674    0.0000 H       1  UNL1        0.0588
     74 H           8.3437    1.8577    0.0000 H       1  UNL1        0.0588
     75 H           6.5380   -3.9400    0.0000 H       1  UNL1        0.0937
     76 H           8.6316    2.6308    0.0000 H       1  UNL1        0.0937
     77 H           8.8641    4.8434    0.0000 H       1  UNL1        0.0675
     78 H           7.4040   -5.0600    0.0000 H       1  UNL1        0.0671
     79 H           2.8469   -0.7131    0.0000 H       1  UNL1        0.0255
     80 H           2.0000   -0.9400    0.0000 H       1  UNL1        0.0255
     81 H           2.2269   -1.7869    0.0000 H       1  UNL1        0.0255
     82 H          10.5967    3.1257    0.0000 H       1  UNL1        0.0591
     83 H          10.6834    3.9508    0.0000 H       1  UNL1        0.0591
     84 H           6.8671   -6.3700    0.0000 H       1  UNL1        0.0647
     85 H           3.7320    0.0600    0.0000 H       1  UNL1        0.2101
     86 H           5.4641   -6.5600    0.0000 H       1  UNL1        0.0643
     87 H           3.7320   -4.5600    0.0000 H       1  UNL1        0.2100
     88 H           2.0000   -2.9400    0.0000 H       1  UNL1        0.2100
     89 H           4.5244   -5.6423    0.0000 H       1  UNL1        0.0587
     90 H           4.9230   -6.3326    0.0000 H       1  UNL1        0.0587
     91 H          10.7599    4.3698    0.0000 H       1  UNL1        0.0587
     92 H          11.1584    5.0601    0.0000 H       1  UNL1        0.0587
     93 H           4.8796    2.6423    0.0000 H       1  UNL1        0.0564
     94 H           4.4810    3.3326    0.0000 H       1  UNL1        0.0564
     95 H           8.8842    5.6222    0.0000 H       1  UNL1        0.2105
     96 H           7.3708    4.7221    0.0000 H       1  UNL1        0.2101
     97 H           8.2700   -4.5600    0.0000 H       1  UNL1        0.2101
     98 H           2.7924    3.3577    0.0000 H       1  UNL1        0.0335
     99 H           3.1909    2.6674    0.0000 H       1  UNL1        0.0335
    100 H           7.7331   -6.8700    0.0000 H       1  UNL1        0.2100
    101 H           5.4641   -7.5600    0.0000 H       1  UNL1        0.2100
    102 H          11.0848    6.2624    0.0000 H       1  UNL1        0.2095
    103 H           9.4651   -0.8700    0.0000 H       1  UNL1        0.0689
    104 H          10.3312    0.8700    0.0000 H       1  UNL1        0.0626
    105 H           4.8059    4.4400    0.0000 H       1  UNL1        0.0658
    106 H           2.0000    4.4400    0.0000 H       1  UNL1        0.0621
    107 H           2.0000    6.0600    0.0000 H       1  UNL1        0.0655
    108 H          10.6603   -1.5600    0.0000 H       1  UNL1        0.0661
    109 H          12.0632    0.8700    0.0000 H       1  UNL1        0.0625
    110 H           5.1350    6.8700    0.0000 H       1  UNL1        0.2923
    111 H          13.4662    0.0600    0.0000 H       1  UNL1        0.0655
    112 H           2.8660    7.5600    0.0000 H       1  UNL1        0.2923
    113 H          12.6002   -3.0600    0.0000 H       1  UNL1        0.2923
    114 H          14.3322   -1.4400    0.0000 H       1  UNL1        0.2923
@<TRIPOS>BOND
     1    24     1    1
     2     1    27    1
     3     2    28    1
     4     2    32    1
     5     3    27    1
     6     3    33    1
     7    26     4    1
     8    35     4    1
     9    25     5    1
    10     5    47    1
    11     6    34    1
    12    37     6    1
    13    29     7    1
    14     7    85    1
    15    32     8    1
    16     8    46    1
    17    30     9    1
    18     9    87    1
    19    10    37    1
    20    10    41    1
    21    31    11    1
    22    11    88    1
    23    12    35    1
    24    12    44    1
    25    36    13    1
    26    13    95    1
    27    38    14    1
    28    14    96    1
    29    39    15    1
    30    15    97    1
    31    42    16    1
    32    16   100    1
    33    43    17    1
    34    17   101    1
    35    18    45    1
    36    18   102    1
    37    19    47    2
    38    20    55    1
    39    20   110    1
    40    21    57    1
    41    21   112    1
    42    22    60    1
    43    22   113    1
    44    23    62    1
    45    23   114    1
    46    24    25    1
    47    24    29    1
    48    24    63    1
    49    25    28    1
    50    25    64    1
    51    26    27    1
    52    26    30    1
    53    26    65    1
    54    27    66    1
    55    28    34    1
    56    28    67    1
    57    29    32    1
    58    29    68    1
    59    30    31    1
    60    30    69    1
    61    31    33    1
    62    31    70    1
    63    32    71    1
    64    33    40    1
    65    33    72    1
    66    34    73    1
    67    34    74    1
    68    35    39    1
    69    35    75    1
    70    36    38    1
    71    36    41    1
    72    36    45    1
    73    37    38    1
    74    37    76    1
    75    38    77    1
    76    39    42    1
    77    39    78    1
    78    40    79    1
    79    40    80    1
    80    40    81    1
    81    41    82    1
    82    41    83    1
    83    42    43    1
    84    42    84    1
    85    43    44    1
    86    43    86    1
    87    44    89    1
    88    44    90    1
    89    45    91    1
    90    45    92    1
    91    46    48    1
    92    46    93    1
    93    46    94    1
    94    47    49    1
    95    48    50    1
    96    48    98    1
    97    48    99    1
    98    49    51    2
    99    49   103    1
   100    50    52   ar
   101    50    53   ar
   102    51    54    1
   103    51   104    1
   104    52    55   ar
   105    52   105    1
   106    53    56   ar
   107    53   106    1
   108    54    58   ar
   109    54    59   ar
   110    55    57   ar
   111    56    57   ar
   112    56   107    1
   113    58    60   ar
   114    58   108    1
   115    59    61   ar
   116    59   109    1
   117    60    62   ar
   118    61    62   ar
   119    61   111    1
