@<TRIPOS>MOLECULE
IMPHY012014
 19 19 0 0 0
SMALL
GASTEIGER

@<TRIPOS>ATOM
      1 O           2.0000   -1.4400    0.0000 O.3     1  UNL1       -0.5068
      2 C           3.7320    0.5600    0.0000 C.ar    1  UNL1       -0.0442
      3 C           3.7320    1.5600    0.0000 C.3     1  UNL1       -0.0304
      4 C           2.8660    0.0600    0.0000 C.ar    1  UNL1       -0.0170
      5 C           4.5981    0.0600    0.0000 C.ar    1  UNL1       -0.0584
      6 C           4.5981    2.0600    0.0000 C.3     1  UNL1       -0.0613
      7 C           2.8660   -0.9400    0.0000 C.ar    1  UNL1        0.1171
      8 C           4.5981   -0.9400    0.0000 C.ar    1  UNL1       -0.0581
      9 C           3.7320   -1.4400    0.0000 C.ar    1  UNL1       -0.0202
     10 H           3.5200    2.1426    0.0000 H       1  UNL1        0.0311
     11 H           3.1215    1.4523    0.0000 H       1  UNL1        0.0311
     12 H           2.3291    0.3700    0.0000 H       1  UNL1        0.0657
     13 H           5.1350    0.3700    0.0000 H       1  UNL1        0.0620
     14 H           4.9081    1.5231    0.0000 H       1  UNL1        0.0233
     15 H           5.1350    2.3700    0.0000 H       1  UNL1        0.0233
     16 H           4.2881    2.5969    0.0000 H       1  UNL1        0.0233
     17 H           5.1350   -1.2500    0.0000 H       1  UNL1        0.0619
     18 H           3.7320   -2.0600    0.0000 H       1  UNL1        0.0654
     19 H           2.0000   -2.0600    0.0000 H       1  UNL1        0.2921
@<TRIPOS>BOND
     1     1     7    1
     2     1    19    1
     3     2     3    1
     4     2     4   ar
     5     2     5   ar
     6     3     6    1
     7     3    10    1
     8     3    11    1
     9     4     7   ar
    10     4    12    1
    11     5     8   ar
    12     5    13    1
    13     6    14    1
    14     6    15    1
    15     6    16    1
    16     7     9   ar
    17     8     9   ar
    18     8    17    1
    19     9    18    1
