@<TRIPOS>MOLECULE
IMPHY014079
 37 39 0 0 0
SMALL
GASTEIGER

@<TRIPOS>ATOM
      1 O           6.0682   -0.1754    0.0000 O.2     1  UNL1       -0.4544
      2 O           8.6663   -2.6754    0.0000 O.3     1  UNL1       -0.4914
      3 O          10.3984   -1.6754    0.0000 O.3     1  UNL1       -0.4915
      4 O           4.3198    2.8592    0.0000 O.3     1  UNL1       -0.5058
      5 O           6.0682    2.8246    0.0000 O.2     1  UNL1       -0.2869
      6 O           2.5381   -0.1995    0.0000 O.3     1  UNL1       -0.5065
      7 C           5.2022    1.3246    0.0000 C.ar    1  UNL1        0.1055
      8 C           6.9343    0.3246    0.0000 C.ar    1  UNL1        0.1393
      9 C           7.8003   -0.1754    0.0000 C.ar    1  UNL1        0.0211
     10 C           5.2022    0.3246    0.0000 C.ar    1  UNL1        0.1462
     11 C           6.0682    1.8246    0.0000 C.ar    1  UNL1        0.1966
     12 C           6.9343    1.3246    0.0000 C.ar    1  UNL1        0.0288
     13 C           4.3083    1.8593    0.0000 C.ar    1  UNL1        0.1347
     14 C           7.8003   -1.1754    0.0000 C.ar    1  UNL1       -0.0056
     15 C           8.6663    0.3246    0.0000 C.ar    1  UNL1       -0.0474
     16 C           4.3083   -0.2101    0.0000 C.ar    1  UNL1        0.0231
     17 C           8.6663   -1.6754    0.0000 C.ar    1  UNL1        0.1622
     18 C           9.5323   -1.1754    0.0000 C.ar    1  UNL1        0.1615
     19 C           3.4022    0.3038    0.0000 C.ar    1  UNL1        0.1239
     20 C           3.4022    1.3454    0.0000 C.ar    1  UNL1        0.0223
     21 C           9.5323   -0.1754    0.0000 C.ar    1  UNL1       -0.0156
     22 C           7.8003   -3.1754    0.0000 C.3     1  UNL1        0.0790
     23 C          11.2644   -1.1754    0.0000 C.3     1  UNL1        0.0790
     24 H           7.4712    1.6346    0.0000 H       1  UNL1        0.0693
     25 H           7.2634   -1.4854    0.0000 H       1  UNL1        0.0662
     26 H           8.6663    0.9446    0.0000 H       1  UNL1        0.0626
     27 H           4.3154   -0.8300    0.0000 H       1  UNL1        0.0691
     28 H           2.8665    1.6575    0.0000 H       1  UNL1        0.0691
     29 H          10.0693    0.1346    0.0000 H       1  UNL1        0.0655
     30 H           3.7865    3.1754    0.0000 H       1  UNL1        0.2922
     31 H           2.0000    0.1084    0.0000 H       1  UNL1        0.2921
     32 H           7.4903   -2.6385    0.0000 H       1  UNL1        0.0660
     33 H           7.2634   -3.4854    0.0000 H       1  UNL1        0.0660
     34 H           8.1103   -3.7123    0.0000 H       1  UNL1        0.0660
     35 H          11.5744   -1.7123    0.0000 H       1  UNL1        0.0660
     36 H          11.8013   -0.8654    0.0000 H       1  UNL1        0.0660
     37 H          10.9544   -0.6385    0.0000 H       1  UNL1        0.0660
@<TRIPOS>BOND
     1     1     8   ar
     2     1    10   ar
     3     2    17    1
     4     2    22    1
     5     3    18    1
     6     3    23    1
     7     4    13    1
     8     4    30    1
     9     5    11    2
    10     6    19    1
    11     6    31    1
    12     7    10   ar
    13     7    11   ar
    14     7    13   ar
    15     8     9    1
    16     8    12   ar
    17     9    14   ar
    18     9    15   ar
    19    10    16   ar
    20    11    12   ar
    21    12    24    1
    22    13    20   ar
    23    14    17   ar
    24    14    25    1
    25    15    21   ar
    26    15    26    1
    27    16    19   ar
    28    16    27    1
    29    17    18   ar
    30    18    21   ar
    31    19    20   ar
    32    20    28    1
    33    21    29    1
    34    22    32    1
    35    22    33    1
    36    22    34    1
    37    23    35    1
    38    23    36    1
    39    23    37    1
