@<TRIPOS>MOLECULE
IMPHY011181
 83 88 0 0 0
SMALL
GASTEIGER

@<TRIPOS>ATOM
      1 O           6.8383   -1.5683    0.0000 O.3     1  UNL1       -0.3633
      2 O          10.2824   -2.0571    0.0000 O.3     1  UNL1       -0.4600
      3 O           3.8185   -1.3915    0.0000 O.3     1  UNL1       -0.4559
      4 O           7.9806    2.5507    0.0000 O.2     1  UNL1       -0.2963
      5 O          10.7395    2.2341    0.0000 O.3     1  UNL1       -0.4497
      6 O           4.3137   -3.1306    0.0000 O.2     1  UNL1       -0.2508
      7 O          12.7368    2.1294    0.0000 O.3     1  UNL1       -0.4654
      8 O          12.6461    0.3997    0.0000 O.2     1  UNL1       -0.2466
      9 O           2.0000    1.1386    0.0000 O.2     1  UNL1       -0.4706
     10 O          12.0121   -1.9665    0.0000 O.2     1  UNL1       -0.2509
     11 O          12.2828    3.0204    0.0000 O.2     1  UNL1       -0.2511
     12 C           6.9084   -0.5703    0.0000 C.3     1  UNL1        0.1044
     13 C           7.1840    0.3909    0.0000 C.3     1  UNL1        0.0034
     14 C           7.7374   -1.1295    0.0000 C.3     1  UNL1        0.1019
     15 C           9.2172    0.7021    0.0000 C.3     1  UNL1        0.0395
     16 C           5.9017   -0.8379    0.0000 C.3     1  UNL1        0.0100
     17 C           8.9584   -0.2639    0.0000 C.3     1  UNL1        0.0844
     18 C           5.1723   -0.0942    0.0000 C.3     1  UNL1        0.0153
     19 C          10.6489    0.5044    0.0000 C.3     1  UNL1        0.0277
     20 C           6.4720    1.1513    0.0000 C.3     1  UNL1       -0.0460
     21 C           8.4806    1.6847    0.0000 C.2     1  UNL1        0.1491
     22 C          11.0072   -0.4292    0.0000 C.3     1  UNL1        0.0105
     23 C          10.2301   -1.0585    0.0000 C.3     1  UNL1        0.1205
     24 C           5.4594    0.9071    0.0000 C.3     1  UNL1       -0.0432
     25 C           5.6268   -1.8875    0.0000 C.3     1  UNL1        0.0511
     26 C           9.4761    1.6680    0.0000 C.3     1  UNL1       -0.0521
     27 C           4.1176   -0.3486    0.0000 C.3     1  UNL1        0.1366
     28 C          11.1935    1.3431    0.0000 C.3     1  UNL1        0.2031
     29 C           4.4722    0.6198    0.0000 C.3     1  UNL1       -0.0555
     30 C          11.9732   -0.1704    0.0000 C.3     1  UNL1       -0.0560
     31 C          11.7144   -1.1363    0.0000 C.3     1  UNL1       -0.0560
     32 C           4.5782   -2.1662    0.0000 C.2     1  UNL1        0.3081
     33 C           3.4257    0.3735    0.0000 C.ar    1  UNL1        0.0309
     34 C          12.1921    1.2907    0.0000 C.2     1  UNL1        0.3484
     35 C          11.1734   -2.5111    0.0000 C.2     1  UNL1        0.3071
     36 C           3.6031    1.3576    0.0000 C.ar    1  UNL1       -0.0172
     37 C           2.4349    0.2381    0.0000 C.ar    1  UNL1        0.0984
     38 C          11.2842    3.0727    0.0000 C.2     1  UNL1        0.3047
     39 C          11.2258   -3.5098    0.0000 C.3     1  UNL1        0.0421
     40 C           2.7220    1.8305    0.0000 C.ar    1  UNL1        0.0921
     41 C          10.8302    3.9638    0.0000 C.3     1  UNL1        0.0333
     42 C          13.7354    2.0771    0.0000 C.3     1  UNL1        0.0818
     43 C          12.1168   -3.9638    0.0000 C.3     1  UNL1       -0.0552
     44 H           7.4183    1.2080    0.0000 H       1  UNL1        0.0339
     45 H           8.4421   -1.6048    0.0000 H       1  UNL1        0.0633
     46 H           6.3409   -1.2755    0.0000 H       1  UNL1        0.0341
     47 H           8.7384   -1.0849    0.0000 H       1  UNL1        0.0441
     48 H          11.4942    0.4155    0.0000 H       1  UNL1        0.0358
     49 H           6.9905    1.4913    0.0000 H       1  UNL1        0.0269
     50 H           6.2257    1.7202    0.0000 H       1  UNL1        0.0269
     51 H          10.7965   -1.3107    0.0000 H       1  UNL1        0.0747
     52 H           5.4194    1.5258    0.0000 H       1  UNL1        0.0272
     53 H           4.8430    0.9735    0.0000 H       1  UNL1        0.0272
     54 H           5.6812   -2.5051    0.0000 H       1  UNL1        0.0381
     55 H           6.2446   -1.9396    0.0000 H       1  UNL1        0.0381
     56 H          10.0749    1.5075    0.0000 H       1  UNL1        0.0239
     57 H           9.6365    2.2669    0.0000 H       1  UNL1        0.0239
     58 H           8.8772    1.8284    0.0000 H       1  UNL1        0.0239
     59 H           3.5157   -0.4974    0.0000 H       1  UNL1        0.0792
     60 H          11.5312    1.8630    0.0000 H       1  UNL1        0.0856
     61 H           4.9148    1.0539    0.0000 H       1  UNL1        0.0236
     62 H           4.0380    1.0624    0.0000 H       1  UNL1        0.0236
     63 H           4.0295    0.1857    0.0000 H       1  UNL1        0.0236
     64 H          12.1336   -0.7692    0.0000 H       1  UNL1        0.0236
     65 H          11.2759   -1.5747    0.0000 H       1  UNL1        0.0236
     66 H          12.1528   -1.5747    0.0000 H       1  UNL1        0.0236
     67 H          12.1528   -0.6979    0.0000 H       1  UNL1        0.0236
     68 H          12.5720   -0.0099    0.0000 H       1  UNL1        0.0236
     69 H          11.8127    0.4285    0.0000 H       1  UNL1        0.0236
     70 H           4.1614    1.6272    0.0000 H       1  UNL1        0.0653
     71 H           2.1417   -0.3082    0.0000 H       1  UNL1        0.1033
     72 H          10.6104   -3.4342    0.0000 H       1  UNL1        0.0375
     73 H          11.0445   -4.1027    0.0000 H       1  UNL1        0.0375
     74 H           2.6381    2.4448    0.0000 H       1  UNL1        0.1029
     75 H          11.3826    4.2452    0.0000 H       1  UNL1        0.0342
     76 H          10.5487    4.5162    0.0000 H       1  UNL1        0.0342
     77 H          10.2778    3.6823    0.0000 H       1  UNL1        0.0342
     78 H          13.7030    1.4579    0.0000 H       1  UNL1        0.0661
     79 H          14.3546    2.0446    0.0000 H       1  UNL1        0.0661
     80 H          13.7679    2.6962    0.0000 H       1  UNL1        0.0661
     81 H          11.8353   -4.5162    0.0000 H       1  UNL1        0.0235
     82 H          12.6692   -4.2452    0.0000 H       1  UNL1        0.0235
     83 H          12.3983   -3.4113    0.0000 H       1  UNL1        0.0235
@<TRIPOS>BOND
     1    12     1    1
     2     1    14    1
     3    23     2    1
     4     2    35    1
     5     3    27    1
     6     3    32    1
     7     4    21    2
     8    28     5    1
     9     5    38    1
    10     6    32    2
    11     7    34    1
    12     7    42    1
    13     8    34    2
    14     9    37   ar
    15     9    40   ar
    16    10    35    2
    17    11    38    2
    18    12    13    1
    19    12    14    1
    20    12    16    1
    21    13    15    1
    22    13    20    1
    23    13    44    1
    24    14    17    1
    25    14    45    1
    26    15    19    1
    27    15    21    1
    28    15    26    1
    29    16    18    1
    30    16    25    1
    31    16    46    1
    32    17    21    1
    33    17    23    1
    34    17    47    1
    35    18    24    1
    36    18    27    1
    37    18    29    1
    38    19    22    1
    39    19    28    1
    40    19    48    1
    41    20    24    1
    42    20    49    1
    43    20    50    1
    44    22    23    1
    45    22    30    1
    46    22    31    1
    47    23    51    1
    48    24    52    1
    49    24    53    1
    50    25    32    1
    51    25    54    1
    52    25    55    1
    53    26    56    1
    54    26    57    1
    55    26    58    1
    56    27    33    1
    57    27    59    1
    58    28    34    1
    59    28    60    1
    60    29    61    1
    61    29    62    1
    62    29    63    1
    63    30    64    1
    64    30    68    1
    65    30    69    1
    66    31    65    1
    67    31    66    1
    68    31    67    1
    69    33    36   ar
    70    33    37   ar
    71    35    39    1
    72    36    40   ar
    73    36    70    1
    74    37    71    1
    75    38    41    1
    76    39    43    1
    77    39    72    1
    78    39    73    1
    79    40    74    1
    80    41    75    1
    81    41    76    1
    82    41    77    1
    83    42    78    1
    84    42    79    1
    85    42    80    1
    86    43    81    1
    87    43    82    1
    88    43    83    1
