@<TRIPOS>MOLECULE
IMPHY007579
 43 44 0 0 0
SMALL
GASTEIGER

@<TRIPOS>ATOM
      1 C           4.5981   -0.4532    0.0000 C.3     1  UNL1       -0.0259
      2 C           4.5981    0.5468    0.0000 C.3     1  UNL1       -0.0302
      3 C           5.4920    1.0815    0.0000 C.3     1  UNL1       -0.0315
      4 C           3.7320   -0.9532    0.0000 C.3     1  UNL1       -0.0356
      5 C           5.4920   -0.9879    0.0000 C.3     1  UNL1       -0.0471
      6 C           3.7320    1.0468    0.0000 C.3     1  UNL1       -0.0490
      7 C           2.8660   -0.4532    0.0000 C.3     1  UNL1       -0.0408
      8 C           6.3981    0.5676    0.0000 C.3     1  UNL1       -0.0476
      9 C           2.8660    0.5468    0.0000 C.3     1  UNL1       -0.0499
     10 C           6.3981   -0.4740    0.0000 C.3     1  UNL1       -0.0521
     11 C           4.5981   -1.4532    0.0000 C.3     1  UNL1       -0.0590
     12 C           5.9820    1.9532    0.0000 C.3     1  UNL1       -0.0595
     13 C           4.9820    1.9416    0.0000 C.3     1  UNL1       -0.0595
     14 C           3.7320   -1.9532    0.0000 C.3     1  UNL1       -0.0617
     15 C           2.0000   -0.9532    0.0000 C.3     1  UNL1       -0.0622
     16 H           4.5915    1.3968    0.0000 H       1  UNL1        0.0311
     17 H           3.1951   -1.2632    0.0000 H       1  UNL1        0.0306
     18 H           5.0874   -1.4576    0.0000 H       1  UNL1        0.0271
     19 H           5.8856   -1.4669    0.0000 H       1  UNL1        0.0271
     20 H           4.1306    1.5217    0.0000 H       1  UNL1        0.0268
     21 H           3.3335    1.5217    0.0000 H       1  UNL1        0.0268
     22 H           2.3291   -0.1432    0.0000 H       1  UNL1        0.0301
     23 H           7.0089    0.4615    0.0000 H       1  UNL1        0.0271
     24 H           6.6071    1.1513    0.0000 H       1  UNL1        0.0271
     25 H           2.6540    1.1294    0.0000 H       1  UNL1        0.0268
     26 H           2.2554    0.4391    0.0000 H       1  UNL1        0.0268
     27 H           6.6071   -1.0577    0.0000 H       1  UNL1        0.0266
     28 H           7.0089   -0.3679    0.0000 H       1  UNL1        0.0266
     29 H           3.9781   -1.4532    0.0000 H       1  UNL1        0.0235
     30 H           4.5981   -2.0732    0.0000 H       1  UNL1        0.0235
     31 H           5.2181   -1.4532    0.0000 H       1  UNL1        0.0235
     32 H           6.5225    1.6494    0.0000 H       1  UNL1        0.0235
     33 H           6.2857    2.4937    0.0000 H       1  UNL1        0.0235
     34 H           5.4415    2.2570    0.0000 H       1  UNL1        0.0235
     35 H           5.5154    2.2578    0.0000 H       1  UNL1        0.0235
     36 H           4.6658    2.4750    0.0000 H       1  UNL1        0.0235
     37 H           4.4487    1.6254    0.0000 H       1  UNL1        0.0235
     38 H           3.1120   -1.9532    0.0000 H       1  UNL1        0.0233
     39 H           3.7320   -2.5732    0.0000 H       1  UNL1        0.0233
     40 H           4.3520   -1.9532    0.0000 H       1  UNL1        0.0233
     41 H           1.6900   -0.4163    0.0000 H       1  UNL1        0.0233
     42 H           1.4631   -1.2632    0.0000 H       1  UNL1        0.0233
     43 H           2.3100   -1.4901    0.0000 H       1  UNL1        0.0233
@<TRIPOS>BOND
     1     1     2    1
     2     1     4    1
     3     1     5    1
     4     1    11    1
     5     2     3    1
     6     2     6    1
     7     2    16    1
     8     3     8    1
     9     3    12    1
    10     3    13    1
    11     4     7    1
    12     4    14    1
    13     4    17    1
    14     5    10    1
    15     5    18    1
    16     5    19    1
    17     6     9    1
    18     6    20    1
    19     6    21    1
    20     7     9    1
    21     7    15    1
    22     7    22    1
    23     8    10    1
    24     8    23    1
    25     8    24    1
    26     9    25    1
    27     9    26    1
    28    10    27    1
    29    10    28    1
    30    11    29    1
    31    11    30    1
    32    11    31    1
    33    12    32    1
    34    12    33    1
    35    12    34    1
    36    13    35    1
    37    13    36    1
    38    13    37    1
    39    14    38    1
    40    14    39    1
    41    14    40    1
    42    15    41    1
    43    15    42    1
    44    15    43    1
