@<TRIPOS>MOLECULE
IMPHY012294
 51 50 0 0 0
SMALL
GASTEIGER

@<TRIPOS>ATOM
      1 O           6.3301   -0.6900    0.0000 O.3     1  UNL1       -0.3947
      2 C           7.1962    0.8100    0.0000 C.3     1  UNL1       -0.0178
      3 C           8.0622    1.3100    0.0000 C.3     1  UNL1       -0.0481
      4 C           6.3301    1.3100    0.0000 C.3     1  UNL1       -0.0481
      5 C           8.9282    0.8100    0.0000 C.3     1  UNL1       -0.0527
      6 C           5.4641    0.8100    0.0000 C.3     1  UNL1       -0.0527
      7 C           9.7942    1.3100    0.0000 C.3     1  UNL1       -0.0530
      8 C           7.1962   -0.1900    0.0000 C.3     1  UNL1        0.0470
      9 C           4.5981    1.3100    0.0000 C.3     1  UNL1       -0.0531
     10 C          10.6603    0.8100    0.0000 C.3     1  UNL1       -0.0531
     11 C          11.5263    1.3100    0.0000 C.3     1  UNL1       -0.0531
     12 C           3.7320    0.8100    0.0000 C.3     1  UNL1       -0.0533
     13 C          12.3923    0.8100    0.0000 C.3     1  UNL1       -0.0533
     14 C           2.8660    1.3100    0.0000 C.3     1  UNL1       -0.0559
     15 C          13.2583    1.3100    0.0000 C.3     1  UNL1       -0.0559
     16 C           2.0000    0.8100    0.0000 C.3     1  UNL1       -0.0653
     17 C          14.1244    0.8100    0.0000 C.3     1  UNL1       -0.0653
     18 H           6.6592    0.5000    0.0000 H       1  UNL1        0.0323
     19 H           8.4607    1.7850    0.0000 H       1  UNL1        0.0269
     20 H           7.6636    1.7850    0.0000 H       1  UNL1        0.0269
     21 H           6.7287    1.7850    0.0000 H       1  UNL1        0.0269
     22 H           5.9316    1.7850    0.0000 H       1  UNL1        0.0269
     23 H           8.5297    0.3351    0.0000 H       1  UNL1        0.0265
     24 H           9.3267    0.3351    0.0000 H       1  UNL1        0.0265
     25 H           5.0656    0.3351    0.0000 H       1  UNL1        0.0265
     26 H           5.8626    0.3351    0.0000 H       1  UNL1        0.0265
     27 H          10.1928    1.7850    0.0000 H       1  UNL1        0.0265
     28 H           9.3957    1.7850    0.0000 H       1  UNL1        0.0265
     29 H           7.4082   -0.7726    0.0000 H       1  UNL1        0.0560
     30 H           7.8067   -0.0823    0.0000 H       1  UNL1        0.0560
     31 H          10.2617    0.3351    0.0000 H       1  UNL1        0.0265
     32 H          11.0588    0.3351    0.0000 H       1  UNL1        0.0265
     33 H           4.9966    1.7850    0.0000 H       1  UNL1        0.0265
     34 H           4.1996    1.7850    0.0000 H       1  UNL1        0.0265
     35 H          11.9248    1.7850    0.0000 H       1  UNL1        0.0265
     36 H          11.1278    1.7850    0.0000 H       1  UNL1        0.0265
     37 H           3.3335    0.3351    0.0000 H       1  UNL1        0.0265
     38 H           4.1306    0.3351    0.0000 H       1  UNL1        0.0265
     39 H          11.9938    0.3351    0.0000 H       1  UNL1        0.0265
     40 H          12.7908    0.3351    0.0000 H       1  UNL1        0.0265
     41 H           3.2646    1.7850    0.0000 H       1  UNL1        0.0263
     42 H           2.4675    1.7850    0.0000 H       1  UNL1        0.0263
     43 H          13.6569    1.7850    0.0000 H       1  UNL1        0.0263
     44 H          12.8598    1.7850    0.0000 H       1  UNL1        0.0263
     45 H           6.3301   -1.3100    0.0000 H       1  UNL1        0.2094
     46 H           1.6900    1.3469    0.0000 H       1  UNL1        0.0230
     47 H           1.4631    0.5000    0.0000 H       1  UNL1        0.0230
     48 H           2.3100    0.2731    0.0000 H       1  UNL1        0.0230
     49 H          13.8144    0.2731    0.0000 H       1  UNL1        0.0230
     50 H          14.6613    0.5000    0.0000 H       1  UNL1        0.0230
     51 H          14.4344    1.3469    0.0000 H       1  UNL1        0.0230
@<TRIPOS>BOND
     1     1     8    1
     2     1    45    1
     3     2     3    1
     4     2     4    1
     5     2     8    1
     6     2    18    1
     7     3     5    1
     8     3    19    1
     9     3    20    1
    10     4     6    1
    11     4    21    1
    12     4    22    1
    13     5     7    1
    14     5    23    1
    15     5    24    1
    16     6     9    1
    17     6    25    1
    18     6    26    1
    19     7    10    1
    20     7    27    1
    21     7    28    1
    22     8    29    1
    23     8    30    1
    24     9    12    1
    25     9    33    1
    26     9    34    1
    27    10    11    1
    28    10    31    1
    29    10    32    1
    30    11    13    1
    31    11    35    1
    32    11    36    1
    33    12    14    1
    34    12    37    1
    35    12    38    1
    36    13    15    1
    37    13    39    1
    38    13    40    1
    39    14    16    1
    40    14    41    1
    41    14    42    1
    42    15    17    1
    43    15    43    1
    44    15    44    1
    45    16    46    1
    46    16    47    1
    47    16    48    1
    48    17    49    1
    49    17    50    1
    50    17    51    1
