@<TRIPOS>MOLECULE
IMPHY013287
 175 187 0 0 0
SMALL
GASTEIGER

@<TRIPOS>ATOM
      1 O          16.9241   -0.4100    0.0000 O.3     1  UNL1       -0.3052
      2 O          14.2603    1.1146    0.0000 O.3     1  UNL1       -0.4499
      3 O          14.2821   -0.9168    0.0000 O.3     1  UNL1       -0.4488
      4 O          16.0262    2.1524    0.0000 O.3     1  UNL1       -0.4476
      5 O          16.0141   -1.9168    0.0000 O.3     1  UNL1       -0.3397
      6 O          17.8001    1.1283    0.0000 O.3     1  UNL1       -0.4274
      7 O          13.7644   -2.8487    0.0000 O.2     1  UNL1       -0.2449
      8 O          15.1089    2.6246    0.0000 O.2     1  UNL1       -0.2449
      9 O          17.7582    2.1591    0.0000 O.2     1  UNL1       -0.2449
     10 O          18.6603   -0.3750    0.0000 O.2     1  UNL1       -0.2447
     11 O          15.2303   -1.7238    0.0000 O.2     1  UNL1       -0.2896
     12 O          11.5490   -4.3614    0.0000 O.3     1  UNL1       -0.5028
     13 O          10.3591   -1.3930    0.0000 O.3     1  UNL1       -0.4476
     14 O          20.3924   -0.3817    0.0000 O.3     1  UNL1       -0.4476
     15 O          12.2517   -5.0641    0.0000 O.3     1  UNL1       -0.5028
     16 O          10.0895   -2.9243    0.0000 O.3     1  UNL1       -0.5009
     17 O          13.6888   -6.5236    0.0000 O.3     1  UNL1       -0.5009
     18 O          15.6673   -5.9934    0.0000 O.3     1  UNL1       -0.5032
     19 O          14.2087    5.5784    0.0000 O.3     1  UNL1       -0.5032
     20 O          11.2289    3.8119    0.0000 O.3     1  UNL1       -0.5032
     21 O          15.1467    5.6491    0.0000 O.3     1  UNL1       -0.5032
     22 O          18.6108    5.6624    0.0000 O.3     1  UNL1       -0.5032
     23 O          22.1283    0.6116    0.0000 O.3     1  UNL1       -0.5008
     24 O          20.4078    3.6182    0.0000 O.3     1  UNL1       -0.5032
     25 O          12.2088    5.5553    0.0000 O.3     1  UNL1       -0.5009
     26 O          16.8749    6.6557    0.0000 O.3     1  UNL1       -0.5009
     27 O          22.1360    2.6116    0.0000 O.3     1  UNL1       -0.5008
     28 O          22.0706   -3.3913    0.0000 O.2     1  UNL1       -0.4178
     29 O           7.4643   -0.6054    0.0000 O.3     1  UNL1       -0.4465
     30 O          24.7799   -0.9060    0.0000 O.2     1  UNL1       -0.4178
     31 O           5.5345   -0.0803    0.0000 O.3     1  UNL1       -0.4509
     32 O          20.3725   -2.3627    0.0000 O.3     1  UNL1       -0.5009
     33 O           5.3349   -2.7186    0.0000 O.3     1  UNL1       -0.3853
     34 O           3.8598   -0.5222    0.0000 O.3     1  UNL1       -0.3868
     35 O          11.7788    0.0157    0.0000 O.3     1  UNL1       -0.5008
     36 O          11.2686    1.9496    0.0000 O.3     1  UNL1       -0.5008
     37 O           2.4401   -1.9309    0.0000 O.3     1  UNL1       -0.3924
     38 O          23.9100    0.6358    0.0000 O.2     1  UNL1       -0.2445
     39 O           8.6844   -1.8349    0.0000 O.2     1  UNL1       -0.2448
     40 O          26.4664   -2.0438    0.0000 O.3     1  UNL1       -0.5009
     41 O           9.3387    2.4746    0.0000 O.3     1  UNL1       -0.5032
     42 O          22.9010   -4.9113    0.0000 O.2     1  UNL1       -0.2445
     43 O          26.3687   -4.0224    0.0000 O.3     1  UNL1       -0.5032
     44 O           6.2998   -2.9811    0.0000 O.2     1  UNL1       -0.2970
     45 O           7.2092    0.3615    0.0000 O.2     1  UNL1       -0.2449
     46 O           3.8043    3.0830    0.0000 O.3     1  UNL1       -0.5032
     47 O           7.1538    3.9666    0.0000 O.3     1  UNL1       -0.5032
     48 O           5.2240    4.4917    0.0000 O.3     1  UNL1       -0.5009
     49 C          15.1320    0.6247    0.0000 C.3     1  UNL1        0.1874
     50 C          15.1481   -0.4168    0.0000 C.3     1  UNL1        0.1942
     51 C          16.0301    1.1524    0.0000 C.3     1  UNL1        0.2055
     52 C          16.0141   -0.9168    0.0000 C.3     1  UNL1        0.2042
     53 C          16.9321    0.6316    0.0000 C.3     1  UNL1        0.2482
     54 C          15.6963   -2.8487    0.0000 C.3     1  UNL1        0.1134
     55 C          14.0232   -1.8827    0.0000 C.2     1  UNL1        0.3406
     56 C          14.2487    2.1146    0.0000 C.2     1  UNL1        0.3399
     57 C          16.8903    2.6558    0.0000 C.2     1  UNL1        0.3400
     58 C          13.0573   -2.1416    0.0000 C.ar    1  UNL1        0.0740
     59 C          18.6642    0.6250    0.0000 C.2     1  UNL1        0.3453
     60 C          14.7303   -2.5899    0.0000 C.2     1  UNL1        0.1895
     61 C          12.7985   -3.1075    0.0000 C.ar    1  UNL1        0.0457
     62 C          14.4715   -3.5558    0.0000 C.ar    1  UNL1        0.0347
     63 C          13.5056   -3.8146    0.0000 C.ar    1  UNL1        0.0424
     64 C          13.7387    2.9748    0.0000 C.ar    1  UNL1        0.0661
     65 C          16.8864    3.6558    0.0000 C.ar    1  UNL1        0.0661
     66 C          19.5321    1.1216    0.0000 C.ar    1  UNL1        0.1085
     67 C          12.3322   -1.3938    0.0000 C.ar    1  UNL1       -0.0009
     68 C          11.7966   -3.3926    0.0000 C.ar    1  UNL1        0.1708
     69 C          13.2205   -4.8165    0.0000 C.ar    1  UNL1        0.1707
     70 C          15.2193   -4.2809    0.0000 C.ar    1  UNL1       -0.0051
     71 C          11.3240   -1.6556    0.0000 C.ar    1  UNL1        0.1743
     72 C          11.0544   -2.6617    0.0000 C.ar    1  UNL1        0.2021
     73 C          12.7388    2.9633    0.0000 C.ar    1  UNL1       -0.0023
     74 C          14.2287    3.8465    0.0000 C.ar    1  UNL1       -0.0023
     75 C          20.3962    0.6183    0.0000 C.ar    1  UNL1        0.1876
     76 C          17.7505    4.1591    0.0000 C.ar    1  UNL1       -0.0023
     77 C          16.0185    4.1524    0.0000 C.ar    1  UNL1       -0.0023
     78 C          13.9514   -5.5587    0.0000 C.ar    1  UNL1        0.2012
     79 C          19.5360    2.1216    0.0000 C.ar    1  UNL1        0.0013
     80 C          14.9575   -5.2891    0.0000 C.ar    1  UNL1        0.1627
     81 C          13.7187    4.7067    0.0000 C.ar    1  UNL1        0.1628
     82 C          12.2288    3.8234    0.0000 C.ar    1  UNL1        0.1628
     83 C          16.0146    5.1524    0.0000 C.ar    1  UNL1        0.1628
     84 C          17.7467    5.1591    0.0000 C.ar    1  UNL1        0.1628
     85 C          21.2642    1.1149    0.0000 C.ar    1  UNL1        0.2060
     86 C          20.4039    2.6183    0.0000 C.ar    1  UNL1        0.1630
     87 C          12.7188    4.6951    0.0000 C.ar    1  UNL1        0.2006
     88 C          16.8787    5.6558    0.0000 C.ar    1  UNL1        0.2006
     89 C          21.2680    2.1149    0.0000 C.ar    1  UNL1        0.2044
     90 C          21.2564   -0.8850    0.0000 C.ar    1  UNL1        0.1743
     91 C          10.1040   -0.4261    0.0000 C.ar    1  UNL1        0.1876
     92 C          22.9717   -1.9121    0.0000 C.ar    1  UNL1        0.0468
     93 C           5.7896   -1.0472    0.0000 C.3     1  UNL1        0.1748
     94 C          21.2465   -1.8767    0.0000 C.ar    1  UNL1        0.2031
     95 C          22.9801   -0.8705    0.0000 C.ar    1  UNL1        0.0745
     96 C          22.1142   -0.3872    0.0000 C.ar    1  UNL1       -0.0009
     97 C           5.0798   -1.7516    0.0000 C.3     1  UNL1        0.1239
     98 C          22.0941   -2.3916    0.0000 C.ar    1  UNL1        0.1854
     99 C          23.8257   -2.4324    0.0000 C.ar    1  UNL1        0.0468
    100 C           9.1391   -0.1636    0.0000 C.ar    1  UNL1        0.1085
    101 C           6.7545   -1.3098    0.0000 C.3     1  UNL1        0.1968
    102 C           4.1148   -1.4891    0.0000 C.3     1  UNL1        0.1076
    103 C          10.8138    0.2783    0.0000 C.ar    1  UNL1        0.2060
    104 C          23.8021   -3.4321    0.0000 C.ar    1  UNL1        0.0744
    105 C          24.7474   -1.9471    0.0000 C.ar    1  UNL1        0.1854
    106 C          23.8903   -0.3640    0.0000 C.ar    1  UNL1        0.3454
    107 C           8.4293   -0.8680    0.0000 C.2     1  UNL1        0.3438
    108 C           8.8840    0.8033    0.0000 C.ar    1  UNL1        0.0013
    109 C          10.5587    1.2452    0.0000 C.ar    1  UNL1        0.2044
    110 C          22.9246   -3.9116    0.0000 C.ar    1  UNL1        0.3454
    111 C           3.4050   -2.1935    0.0000 C.3     1  UNL1        0.0727
    112 C          25.5740   -2.4949    0.0000 C.ar    1  UNL1        0.2022
    113 C           9.5938    1.5077    0.0000 C.ar    1  UNL1        0.1630
    114 C          24.6484   -3.9491    0.0000 C.ar    1  UNL1       -0.0017
    115 C           7.0096   -2.2767    0.0000 C.2     1  UNL1        0.1645
    116 C          25.5251   -3.4854    0.0000 C.ar    1  UNL1        0.1628
    117 C           6.2443    0.6240    0.0000 C.2     1  UNL1        0.3399
    118 C           5.9892    1.5910    0.0000 C.ar    1  UNL1        0.0661
    119 C           6.6991    2.2953    0.0000 C.ar    1  UNL1       -0.0023
    120 C           5.0243    1.8535    0.0000 C.ar    1  UNL1       -0.0023
    121 C           4.7692    2.8204    0.0000 C.ar    1  UNL1        0.1628
    122 C           6.4440    3.2622    0.0000 C.ar    1  UNL1        0.1628
    123 C           5.4790    3.5248    0.0000 C.ar    1  UNL1        0.2006
    124 H          14.5993    0.3075    0.0000 H       1  UNL1        0.0814
    125 H          14.6088   -0.1110    0.0000 H       1  UNL1        0.0825
    126 H          15.4913    1.4593    0.0000 H       1  UNL1        0.0837
    127 H          16.5486   -1.2310    0.0000 H       1  UNL1        0.0951
    128 H          16.9333    1.2516    0.0000 H       1  UNL1        0.1098
    129 H          15.5225   -3.4438    0.0000 H       1  UNL1        0.0644
    130 H          16.2874   -3.0357    0.0000 H       1  UNL1        0.0644
    131 H          12.4996   -0.7968    0.0000 H       1  UNL1        0.0664
    132 H          15.8163   -4.1135    0.0000 H       1  UNL1        0.0662
    133 H          12.4351    2.4228    0.0000 H       1  UNL1        0.0663
    134 H          14.8486    3.8537    0.0000 H       1  UNL1        0.0663
    135 H          18.2887    3.8512    0.0000 H       1  UNL1        0.0663
    136 H          15.4828    3.8404    0.0000 H       1  UNL1        0.0663
    137 H          19.0002    2.4337    0.0000 H       1  UNL1        0.0665
    138 H          10.9520   -4.5288    0.0000 H       1  UNL1        0.2923
    139 H          12.0843   -5.6611    0.0000 H       1  UNL1        0.2923
    140 H           9.9314   -3.5238    0.0000 H       1  UNL1        0.2924
    141 H          14.1255   -6.9637    0.0000 H       1  UNL1        0.2924
    142 H          16.2656   -5.8307    0.0000 H       1  UNL1        0.2923
    143 H           6.2297   -0.6105    0.0000 H       1  UNL1        0.0803
    144 H           4.6397   -2.1883    0.0000 H       1  UNL1        0.0658
    145 H          22.1089    0.2327    0.0000 H       1  UNL1        0.0664
    146 H          13.8925    6.1118    0.0000 H       1  UNL1        0.2923
    147 H          10.9127    4.3451    0.0000 H       1  UNL1        0.2923
    148 H          15.1443    6.2691    0.0000 H       1  UNL1        0.2923
    149 H          19.1489    5.3545    0.0000 H       1  UNL1        0.2923
    150 H           7.3528   -1.4726    0.0000 H       1  UNL1        0.0851
    151 H          22.6664    0.9195    0.0000 H       1  UNL1        0.2924
    152 H          19.8720    3.9303    0.0000 H       1  UNL1        0.2923
    153 H           4.5549   -1.0524    0.0000 H       1  UNL1        0.0643
    154 H          11.5888    5.5482    0.0000 H       1  UNL1        0.2924
    155 H          16.3368    6.9637    0.0000 H       1  UNL1        0.2924
    156 H          22.1383    3.2316    0.0000 H       1  UNL1        0.2924
    157 H           8.2857    0.9661    0.0000 H       1  UNL1        0.0665
    158 H           3.1408   -2.7544    0.0000 H       1  UNL1        0.0584
    159 H           3.9115   -2.5510    0.0000 H       1  UNL1        0.0584
    160 H          24.6292   -4.5688    0.0000 H       1  UNL1        0.0664
    161 H           7.6078   -2.4395    0.0000 H       1  UNL1        0.1067
    162 H           4.8948   -3.1553    0.0000 H       1  UNL1        0.2101
    163 H          19.8407   -2.0440    0.0000 H       1  UNL1        0.2924
    164 H           3.2615   -0.3594    0.0000 H       1  UNL1        0.2100
    165 H          12.2188    0.4524    0.0000 H       1  UNL1        0.2924
    166 H          11.8668    1.7868    0.0000 H       1  UNL1        0.2924
    167 H           2.0000   -2.3676    0.0000 H       1  UNL1        0.2095
    168 H          26.9853   -2.3831    0.0000 H       1  UNL1        0.2924
    169 H           9.7788    2.9113    0.0000 H       1  UNL1        0.2923
    170 H          26.3419   -4.6418    0.0000 H       1  UNL1        0.2923
    171 H           7.2973    2.1326    0.0000 H       1  UNL1        0.0663
    172 H           4.5842    1.4168    0.0000 H       1  UNL1        0.0663
    173 H           3.3642    2.6462    0.0000 H       1  UNL1        0.2923
    174 H           6.9956    4.5661    0.0000 H       1  UNL1        0.2923
    175 H           4.6257    4.6545    0.0000 H       1  UNL1        0.2924
@<TRIPOS>BOND
     1     1    52    1
     2     1    53    1
     3     2    49    1
     4     2    56    1
     5     3    50    1
     6     3    55    1
     7     4    51    1
     8     4    57    1
     9     5    52    1
    10     5    54    1
    11     6    53    1
    12     6    59    1
    13     7    55    2
    14     8    56    2
    15     9    57    2
    16    10    59    2
    17    11    60    2
    18    12    68    1
    19    12   138    1
    20    13    71    1
    21    13    91    1
    22    14    75    1
    23    14    90    1
    24    15    69    1
    25    15   139    1
    26    16    72    1
    27    16   140    1
    28    17    78    1
    29    17   141    1
    30    18    80    1
    31    18   142    1
    32    19    81    1
    33    19   146    1
    34    20    82    1
    35    20   147    1
    36    21    83    1
    37    21   148    1
    38    22    84    1
    39    22   149    1
    40    23    85    1
    41    23   151    1
    42    24    86    1
    43    24   152    1
    44    25    87    1
    45    25   154    1
    46    26    88    1
    47    26   155    1
    48    27    89    1
    49    27   156    1
    50    28    98   ar
    51    28   110   ar
    52    29   101    1
    53    29   107    1
    54    30   105   ar
    55    30   106   ar
    56    31    93    1
    57    31   117    1
    58    32    94    1
    59    32   163    1
    60    33    97    1
    61    33   162    1
    62    34   102    1
    63    34   164    1
    64    35   103    1
    65    35   165    1
    66    36   109    1
    67    36   166    1
    68    37   111    1
    69    37   167    1
    70    38   106    2
    71    39   107    2
    72    40   112    1
    73    40   168    1
    74    41   113    1
    75    41   169    1
    76    42   110    2
    77    43   116    1
    78    43   170    1
    79    44   115    2
    80    45   117    2
    81    46   121    1
    82    46   173    1
    83    47   122    1
    84    47   174    1
    85    48   123    1
    86    48   175    1
    87    49    50    1
    88    49    51    1
    89    49   124    1
    90    50    52    1
    91    50   125    1
    92    51    53    1
    93    51   126    1
    94    52   127    1
    95    53   128    1
    96    54    60    1
    97    54   129    1
    98    54   130    1
    99    55    58    1
   100    56    64    1
   101    57    65    1
   102    58    61   ar
   103    58    67   ar
   104    59    66    1
   105    60    62    1
   106    61    63    1
   107    61    68   ar
   108    62    63   ar
   109    62    70   ar
   110    63    69   ar
   111    64    73   ar
   112    64    74   ar
   113    65    76   ar
   114    65    77   ar
   115    66    75   ar
   116    66    79   ar
   117    67    71   ar
   118    67   131    1
   119    68    72   ar
   120    69    78   ar
   121    70    80   ar
   122    70   132    1
   123    71    72   ar
   124    73    82   ar
   125    73   133    1
   126    74    81   ar
   127    74   134    1
   128    75    85   ar
   129    76    84   ar
   130    76   135    1
   131    77    83   ar
   132    77   136    1
   133    78    80   ar
   134    79    86   ar
   135    79   137    1
   136    81    87   ar
   137    82    87   ar
   138    83    88   ar
   139    84    88   ar
   140    85    89   ar
   141    86    89   ar
   142    90    94   ar
   143    90    96   ar
   144    91   100   ar
   145    91   103   ar
   146    92    95   ar
   147    92    98   ar
   148    92    99   ar
   149    93    97    1
   150    93   101    1
   151    93   143    1
   152    94    98   ar
   153    95    96   ar
   154    95   106   ar
   155    96   145    1
   156    97   102    1
   157    97   144    1
   158    99   104   ar
   159    99   105   ar
   160   100   107    1
   161   100   108   ar
   162   101   115    1
   163   101   150    1
   164   102   111    1
   165   102   153    1
   166   103   109   ar
   167   104   110   ar
   168   104   114   ar
   169   105   112   ar
   170   108   113   ar
   171   108   157    1
   172   109   113   ar
   173   111   158    1
   174   111   159    1
   175   112   116   ar
   176   114   116   ar
   177   114   160    1
   178   115   161    1
   179   117   118    1
   180   118   119   ar
   181   118   120   ar
   182   119   122   ar
   183   119   171    1
   184   120   121   ar
   185   120   172    1
   186   121   123   ar
   187   122   123   ar
