@<TRIPOS>MOLECULE
IMPHY014739
 82 86 0 0 0
SMALL
GASTEIGER

@<TRIPOS>ATOM
      1 C           5.6591   -1.0410    0.0000 C.3     1  UNL1       -0.0231
      2 C           6.5251   -0.5410    0.0000 C.3     1  UNL1       -0.0233
      3 C           4.7931   -0.5410    0.0000 C.3     1  UNL1       -0.0294
      4 C           6.5251    0.4590    0.0000 C.3     1  UNL1       -0.0318
      5 C           3.8831   -1.0478    0.0000 C.3     1  UNL1       -0.0254
      6 C           7.4191    0.9937    0.0000 C.3     1  UNL1       -0.0318
      7 C           3.8751   -2.0894    0.0000 C.3     1  UNL1       -0.0302
      8 C           8.3252    0.4799    0.0000 C.3     1  UNL1       -0.0289
      9 C           5.6752   -2.0825    0.0000 C.3     1  UNL1       -0.0466
     10 C           4.7931    0.4590    0.0000 C.3     1  UNL1       -0.0489
     11 C           7.4191   -1.0756    0.0000 C.3     1  UNL1       -0.0464
     12 C           5.6591    0.9590    0.0000 C.3     1  UNL1       -0.0491
     13 C           4.7771   -2.6102    0.0000 C.3     1  UNL1       -0.0487
     14 C           8.3252   -0.5618    0.0000 C.3     1  UNL1       -0.0468
     15 C           2.9396   -2.6391    0.0000 C.3     1  UNL1       -0.0315
     16 C           2.9562   -0.4837    0.0000 C.3     1  UNL1       -0.0471
     17 C           6.3019   -1.8070    0.0000 C.3     1  UNL1       -0.0588
     18 C           7.3940    2.0784    0.0000 C.3     1  UNL1       -0.0443
     19 C           6.8672   -1.4806    0.0000 C.3     1  UNL1       -0.0588
     20 C           9.2689    1.0151    0.0000 C.3     1  UNL1       -0.0469
     21 C           3.8908   -0.0478    0.0000 C.3     1  UNL1       -0.0590
     22 C           8.3252    2.6353    0.0000 C.3     1  UNL1       -0.0346
     23 C           2.0000   -2.0966    0.0000 C.3     1  UNL1       -0.0476
     24 C           2.0084   -1.0117    0.0000 C.3     1  UNL1       -0.0521
     25 C           9.2689    2.1001    0.0000 C.3     1  UNL1       -0.0474
     26 C           9.1950   -0.0135    0.0000 C.3     1  UNL1       -0.0593
     27 C           2.4430   -3.5071    0.0000 C.3     1  UNL1       -0.0595
     28 C           3.4430   -3.5032    0.0000 C.3     1  UNL1       -0.0595
     29 C           8.8151    3.5071    0.0000 C.3     1  UNL1       -0.0598
     30 C           7.8152    3.4955    0.0000 C.3     1  UNL1       -0.0598
     31 H           5.5292   -0.1160    0.0000 H       1  UNL1        0.0312
     32 H           6.5186    1.3090    0.0000 H       1  UNL1        0.0309
     33 H           8.1486    1.4300    0.0000 H       1  UNL1        0.0309
     34 H           3.8783   -2.9394    0.0000 H       1  UNL1        0.0311
     35 H           5.8932   -2.6629    0.0000 H       1  UNL1        0.0271
     36 H           6.2843   -1.9670    0.0000 H       1  UNL1        0.0271
     37 H           4.5810    1.0416    0.0000 H       1  UNL1        0.0268
     38 H           4.1825    0.3514    0.0000 H       1  UNL1        0.0268
     39 H           7.0145   -1.5454    0.0000 H       1  UNL1        0.0271
     40 H           7.8127   -1.5546    0.0000 H       1  UNL1        0.0271
     41 H           6.0576    1.4340    0.0000 H       1  UNL1        0.0268
     42 H           5.2606    1.4340    0.0000 H       1  UNL1        0.0268
     43 H           4.3798   -3.0862    0.0000 H       1  UNL1        0.0268
     44 H           5.1781   -3.0831    0.0000 H       1  UNL1        0.0268
     45 H           8.5342   -1.1455    0.0000 H       1  UNL1        0.0271
     46 H           8.9360   -0.4557    0.0000 H       1  UNL1        0.0271
     47 H           3.3645   -0.0171    0.0000 H       1  UNL1        0.0271
     48 H           2.5663   -0.0017    0.0000 H       1  UNL1        0.0271
     49 H           5.8270   -2.2055    0.0000 H       1  UNL1        0.0235
     50 H           6.7004   -2.2820    0.0000 H       1  UNL1        0.0235
     51 H           6.7768   -1.4085    0.0000 H       1  UNL1        0.0235
     52 H           7.1715    2.6571    0.0000 H       1  UNL1        0.0273
     53 H           6.7858    1.9582    0.0000 H       1  UNL1        0.0273
     54 H           6.2847   -1.6927    0.0000 H       1  UNL1        0.0235
     55 H           7.0794   -2.0632    0.0000 H       1  UNL1        0.0235
     56 H           7.4498   -1.2685    0.0000 H       1  UNL1        0.0235
     57 H           9.4780    0.4314    0.0000 H       1  UNL1        0.0271
     58 H           9.8798    1.1212    0.0000 H       1  UNL1        0.0271
     59 H           4.5108   -0.0526    0.0000 H       1  UNL1        0.0235
     60 H           3.8956    0.5721    0.0000 H       1  UNL1        0.0235
     61 H           3.2708   -0.0431    0.0000 H       1  UNL1        0.0235
     62 H           1.3900   -1.9858    0.0000 H       1  UNL1        0.0271
     63 H           1.7864   -2.6787    0.0000 H       1  UNL1        0.0271
     64 H           1.8038   -0.4264    0.0000 H       1  UNL1        0.0266
     65 H           1.3967   -1.1131    0.0000 H       1  UNL1        0.0266
     66 H           9.8798    1.9940    0.0000 H       1  UNL1        0.0271
     67 H           9.4780    2.6838    0.0000 H       1  UNL1        0.0271
     68 H           8.8892   -0.5528    0.0000 H       1  UNL1        0.0235
     69 H           9.7343   -0.3193    0.0000 H       1  UNL1        0.0235
     70 H           9.5008    0.5259    0.0000 H       1  UNL1        0.0235
     71 H           1.9048   -3.1992    0.0000 H       1  UNL1        0.0235
     72 H           2.1350   -4.0452    0.0000 H       1  UNL1        0.0235
     73 H           2.9811   -3.8150    0.0000 H       1  UNL1        0.0235
     74 H           2.9072   -3.8153    0.0000 H       1  UNL1        0.0235
     75 H           3.7550   -4.0390    0.0000 H       1  UNL1        0.0235
     76 H           3.9787   -3.1912    0.0000 H       1  UNL1        0.0235
     77 H           9.3556    3.2033    0.0000 H       1  UNL1        0.0235
     78 H           9.1189    4.0476    0.0000 H       1  UNL1        0.0235
     79 H           8.2746    3.8108    0.0000 H       1  UNL1        0.0235
     80 H           8.3485    3.8117    0.0000 H       1  UNL1        0.0235
     81 H           7.4990    4.0288    0.0000 H       1  UNL1        0.0235
     82 H           7.2818    3.1793    0.0000 H       1  UNL1        0.0235
@<TRIPOS>BOND
     1     1     2    1
     2     1     3    1
     3     1     9    1
     4     1    17    1
     5     2     4    1
     6     2    11    1
     7     2    19    1
     8     3     5    1
     9     3    10    1
    10     3    31    1
    11     4     6    1
    12     4    12    1
    13     4    32    1
    14     5     7    1
    15     5    16    1
    16     5    21    1
    17     6     8    1
    18     6    18    1
    19     6    33    1
    20     7    13    1
    21     7    15    1
    22     7    34    1
    23     8    14    1
    24     8    20    1
    25     8    26    1
    26     9    13    1
    27     9    35    1
    28     9    36    1
    29    10    12    1
    30    10    37    1
    31    10    38    1
    32    11    14    1
    33    11    39    1
    34    11    40    1
    35    12    41    1
    36    12    42    1
    37    13    43    1
    38    13    44    1
    39    14    45    1
    40    14    46    1
    41    15    23    1
    42    15    27    1
    43    15    28    1
    44    16    24    1
    45    16    47    1
    46    16    48    1
    47    17    49    1
    48    17    50    1
    49    17    51    1
    50    18    22    1
    51    18    52    1
    52    18    53    1
    53    19    54    1
    54    19    55    1
    55    19    56    1
    56    20    25    1
    57    20    57    1
    58    20    58    1
    59    21    59    1
    60    21    60    1
    61    21    61    1
    62    22    25    1
    63    22    29    1
    64    22    30    1
    65    23    24    1
    66    23    62    1
    67    23    63    1
    68    24    64    1
    69    24    65    1
    70    25    66    1
    71    25    67    1
    72    26    68    1
    73    26    69    1
    74    26    70    1
    75    27    71    1
    76    27    72    1
    77    27    73    1
    78    28    74    1
    79    28    75    1
    80    28    76    1
    81    29    77    1
    82    29    78    1
    83    29    79    1
    84    30    80    1
    85    30    81    1
    86    30    82    1
