@<TRIPOS>MOLECULE
IMPHY012655
 15 14 0 0 0
SMALL
GASTEIGER

@<TRIPOS>ATOM
      1 O           6.8671   -0.2500    0.0000 O.3     1  UNL1       -0.4773
      2 O           2.5369    0.2500    0.0000 O.3     1  UNL1       -0.4775
      3 O           6.0010    1.2500    0.0000 O.2     1  UNL1       -0.2455
      4 O           3.4030   -1.2500    0.0000 O.2     1  UNL1       -0.2458
      5 C           5.1350   -0.2500    0.0000 C.2     1  UNL1        0.0401
      6 C           5.1350   -1.2500    0.0000 C.3     1  UNL1       -0.0327
      7 C           4.2690    0.2500    0.0000 C.2     1  UNL1        0.0320
      8 C           6.0010    0.2500    0.0000 C.2     1  UNL1        0.3327
      9 C           3.4030   -0.2500    0.0000 C.2     1  UNL1        0.3300
     10 H           4.5150   -1.2500    0.0000 H       1  UNL1        0.0280
     11 H           5.1350   -1.8700    0.0000 H       1  UNL1        0.0280
     12 H           5.7550   -1.2500    0.0000 H       1  UNL1        0.0280
     13 H           4.2690    0.8700    0.0000 H       1  UNL1        0.0694
     14 H           7.4040    0.0600    0.0000 H       1  UNL1        0.2954
     15 H           2.0000   -0.0600    0.0000 H       1  UNL1        0.2954
@<TRIPOS>BOND
     1     1     8    1
     2     1    14    1
     3     2     9    1
     4     2    15    1
     5     3     8    2
     6     4     9    2
     7     5     6    1
     8     5     7    2
     9     5     8    1
    10     6    10    1
    11     6    11    1
    12     6    12    1
    13     7     9    1
    14     7    13    1
