@<TRIPOS>MOLECULE
IMPHY005624
 70 73 0 0 0
SMALL
GASTEIGER

@<TRIPOS>ATOM
      1 O           4.2690   -3.9765    0.0000 O.3     1  UNL1       -0.3339
      2 O           5.1963    0.6072    0.0000 O.3     1  UNL1       -0.4796
      3 O           6.0010   -3.9765    0.0000 O.3     1  UNL1       -0.4572
      4 O           4.2690   -6.9765    0.0000 O.3     1  UNL1       -0.3864
      5 O           2.5369   -5.9765    0.0000 O.3     1  UNL1       -0.3866
      6 O           6.0010   -5.9765    0.0000 O.3     1  UNL1       -0.3829
      7 O           8.5006    0.9643    0.0000 O.3     1  UNL1       -0.3943
      8 O           4.0010    2.4194    0.0000 O.3     1  UNL1       -0.4914
      9 O           4.2690   -2.9765    0.0000 O.3     1  UNL1       -0.4914
     10 O           6.5010    6.7495    0.0000 O.3     1  UNL1       -0.3950
     11 C           6.8058    0.6072    0.0000 C.3     1  UNL1        0.0520
     12 C           6.0010    0.0235    0.0000 C.3     1  UNL1        0.1344
     13 C           4.2690   -5.9765    0.0000 C.3     1  UNL1        0.1151
     14 C           3.4030   -5.4765    0.0000 C.3     1  UNL1        0.1096
     15 C           5.1350   -5.4765    0.0000 C.3     1  UNL1        0.1454
     16 C           3.4030   -4.4765    0.0000 C.3     1  UNL1        0.0883
     17 C           5.1350   -4.4765    0.0000 C.3     1  UNL1        0.2309
     18 C           6.5010    1.5534    0.0000 C.ar    1  UNL1        0.0073
     19 C           5.5010    1.5534    0.0000 C.ar    1  UNL1        0.1664
     20 C           6.0010   -0.9765    0.0000 C.ar    1  UNL1       -0.0030
     21 C           7.7563    0.2965    0.0000 C.3     1  UNL1        0.0548
     22 C           7.0010    2.4194    0.0000 C.ar    1  UNL1       -0.0512
     23 C           2.5369   -3.9765    0.0000 C.3     1  UNL1       -0.0360
     24 C           6.5010    3.2854    0.0000 C.ar    1  UNL1       -0.0433
     25 C           5.0010    2.4194    0.0000 C.ar    1  UNL1        0.1621
     26 C           6.0010   -2.9765    0.0000 C.ar    1  UNL1        0.1654
     27 C           5.1350   -1.4765    0.0000 C.ar    1  UNL1       -0.0096
     28 C           6.8671   -1.4765    0.0000 C.ar    1  UNL1       -0.0514
     29 C           5.5010    3.2854    0.0000 C.ar    1  UNL1       -0.0131
     30 C           5.1350   -2.4765    0.0000 C.ar    1  UNL1        0.1620
     31 C           7.0010    4.1514    0.0000 C.3     1  UNL1       -0.0255
     32 C           6.8671   -2.4765    0.0000 C.ar    1  UNL1       -0.0158
     33 C           6.5010    5.0175    0.0000 C.3     1  UNL1       -0.0257
     34 C           7.0010    5.8835    0.0000 C.3     1  UNL1        0.0445
     35 C           3.5010    3.2854    0.0000 C.3     1  UNL1        0.0790
     36 C           3.4030   -2.4765    0.0000 C.3     1  UNL1        0.0790
     37 H           7.2451    1.0446    0.0000 H       1  UNL1        0.0412
     38 H           6.5533   -0.2582    0.0000 H       1  UNL1        0.0791
     39 H           4.8059   -6.2865    0.0000 H       1  UNL1        0.0648
     40 H           3.4030   -6.0965    0.0000 H       1  UNL1        0.0646
     41 H           5.6720   -5.1665    0.0000 H       1  UNL1        0.0683
     42 H           3.4030   -3.8565    0.0000 H       1  UNL1        0.0621
     43 H           5.1350   -3.8565    0.0000 H       1  UNL1        0.1084
     44 H           7.4643   -0.2504    0.0000 H       1  UNL1        0.0564
     45 H           8.2442   -0.0861    0.0000 H       1  UNL1        0.0564
     46 H           7.6210    2.4194    0.0000 H       1  UNL1        0.0624
     47 H           2.8469   -3.4395    0.0000 H       1  UNL1        0.0255
     48 H           2.0000   -3.6665    0.0000 H       1  UNL1        0.0255
     49 H           2.2269   -4.5134    0.0000 H       1  UNL1        0.0255
     50 H           4.5981   -1.1665    0.0000 H       1  UNL1        0.0659
     51 H           7.4040   -1.1665    0.0000 H       1  UNL1        0.0623
     52 H           5.1910    3.8224    0.0000 H       1  UNL1        0.0658
     53 H           3.7320   -7.2865    0.0000 H       1  UNL1        0.2100
     54 H           2.0000   -5.6665    0.0000 H       1  UNL1        0.2100
     55 H           7.4760    3.7529    0.0000 H       1  UNL1        0.0314
     56 H           7.4760    4.5500    0.0000 H       1  UNL1        0.0314
     57 H           6.0010   -6.5965    0.0000 H       1  UNL1        0.2102
     58 H           7.4040   -2.7865    0.0000 H       1  UNL1        0.0655
     59 H           6.0261    5.4160    0.0000 H       1  UNL1        0.0290
     60 H           6.0261    4.6189    0.0000 H       1  UNL1        0.0290
     61 H           9.0899    0.7717    0.0000 H       1  UNL1        0.2094
     62 H           7.4760    5.4850    0.0000 H       1  UNL1        0.0557
     63 H           7.4760    6.2820    0.0000 H       1  UNL1        0.0557
     64 H           4.0380    3.5954    0.0000 H       1  UNL1        0.0660
     65 H           3.1910    3.8224    0.0000 H       1  UNL1        0.0660
     66 H           2.9641    2.9754    0.0000 H       1  UNL1        0.0660
     67 H           3.7130   -1.9395    0.0000 H       1  UNL1        0.0660
     68 H           2.8660   -2.1665    0.0000 H       1  UNL1        0.0660
     69 H           3.0930   -3.0134    0.0000 H       1  UNL1        0.0660
     70 H           6.8110    7.2865    0.0000 H       1  UNL1        0.2094
@<TRIPOS>BOND
     1     1    16    1
     2     1    17    1
     3     2    12    1
     4     2    19    1
     5    17     3    1
     6     3    26    1
     7    13     4    1
     8     4    53    1
     9    14     5    1
    10     5    54    1
    11    15     6    1
    12     6    57    1
    13     7    21    1
    14     7    61    1
    15     8    25    1
    16     8    35    1
    17     9    30    1
    18     9    36    1
    19    10    34    1
    20    10    70    1
    21    11    12    1
    22    11    18    1
    23    11    21    1
    24    11    37    1
    25    12    20    1
    26    12    38    1
    27    13    14    1
    28    13    15    1
    29    13    39    1
    30    14    16    1
    31    14    40    1
    32    15    17    1
    33    15    41    1
    34    16    23    1
    35    16    42    1
    36    17    43    1
    37    18    19   ar
    38    18    22   ar
    39    19    25   ar
    40    20    27   ar
    41    20    28   ar
    42    21    44    1
    43    21    45    1
    44    22    24   ar
    45    22    46    1
    46    23    47    1
    47    23    48    1
    48    23    49    1
    49    24    29   ar
    50    24    31    1
    51    25    29   ar
    52    26    30   ar
    53    26    32   ar
    54    27    30   ar
    55    27    50    1
    56    28    32   ar
    57    28    51    1
    58    29    52    1
    59    31    33    1
    60    31    55    1
    61    31    56    1
    62    32    58    1
    63    33    34    1
    64    33    59    1
    65    33    60    1
    66    34    62    1
    67    34    63    1
    68    35    64    1
    69    35    65    1
    70    35    66    1
    71    36    67    1
    72    36    68    1
    73    36    69    1
