@<TRIPOS>MOLECULE
IMPHY003971
 28 27 0 0 0
SMALL
GASTEIGER

@<TRIPOS>ATOM
      1 O           6.8671    1.2500    0.0000 O.3     1  UNL1       -0.3865
      2 O           6.0010   -1.2500    0.0000 O.3     1  UNL1       -0.3861
      3 O           7.7331   -1.2500    0.0000 O.3     1  UNL1       -0.3869
      4 O           5.1350    1.2500    0.0000 O.3     1  UNL1       -0.3815
      5 O           9.4651   -0.2500    0.0000 O.3     1  UNL1       -0.3924
      6 O           4.2690   -1.2500    0.0000 O.2     1  UNL1       -0.2921
      7 O           2.5369   -0.2500    0.0000 O.3     1  UNL1       -0.3874
      8 C           6.8671    0.2500    0.0000 C.3     1  UNL1        0.1118
      9 C           6.0010   -0.2500    0.0000 C.3     1  UNL1        0.1162
     10 C           7.7331   -0.2500    0.0000 C.3     1  UNL1        0.1065
     11 C           5.1350    0.2500    0.0000 C.3     1  UNL1        0.1434
     12 C           8.5991    0.2500    0.0000 C.3     1  UNL1        0.0727
     13 C           4.2690   -0.2500    0.0000 C.2     1  UNL1        0.1892
     14 C           3.4030    0.2500    0.0000 C.3     1  UNL1        0.1049
     15 H           6.3301    0.5600    0.0000 H       1  UNL1        0.0647
     16 H           6.5380   -0.5600    0.0000 H       1  UNL1        0.0650
     17 H           8.2700   -0.5600    0.0000 H       1  UNL1        0.0643
     18 H           5.6720    0.5600    0.0000 H       1  UNL1        0.0701
     19 H           8.9976    0.7249    0.0000 H       1  UNL1        0.0584
     20 H           8.2006    0.7249    0.0000 H       1  UNL1        0.0584
     21 H           7.4040    1.5600    0.0000 H       1  UNL1        0.2100
     22 H           5.4641   -1.5600    0.0000 H       1  UNL1        0.2100
     23 H           8.2700   -1.5600    0.0000 H       1  UNL1        0.2100
     24 H           4.5981    1.5600    0.0000 H       1  UNL1        0.2105
     25 H           3.8015    0.7249    0.0000 H       1  UNL1        0.0637
     26 H           3.0044    0.7249    0.0000 H       1  UNL1        0.0637
     27 H          10.0021    0.0600    0.0000 H       1  UNL1        0.2095
     28 H           2.0000    0.0600    0.0000 H       1  UNL1        0.2100
@<TRIPOS>BOND
     1     8     1    1
     2     1    21    1
     3     9     2    1
     4     2    22    1
     5    10     3    1
     6     3    23    1
     7    11     4    1
     8     4    24    1
     9     5    12    1
    10     5    27    1
    11     6    13    2
    12     7    14    1
    13     7    28    1
    14     8     9    1
    15     8    10    1
    16     8    15    1
    17     9    11    1
    18     9    16    1
    19    10    12    1
    20    10    17    1
    21    11    13    1
    22    11    18    1
    23    12    19    1
    24    12    20    1
    25    13    14    1
    26    14    25    1
    27    14    26    1
