@<TRIPOS>MOLECULE
IMPHY011906
 53 57 0 0 0
SMALL
GASTEIGER

@<TRIPOS>ATOM
      1 O           6.5678    0.1136    0.0000 O.3     1  UNL1       -0.4510
      2 O           7.5047   -0.4952    0.0000 O.3     1  UNL1       -0.4910
      3 O           9.3170   -1.6905    0.0000 O.3     1  UNL1       -0.4489
      4 O           9.3170   -3.3000    0.0000 O.3     1  UNL1       -0.4525
      5 O           4.9425    2.7779    0.0000 O.3     1  UNL1       -0.4906
      6 O           6.8739    1.8634    0.0000 O.2     1  UNL1       -0.2448
      7 O           2.9808    2.3882    0.0000 O.3     1  UNL1       -0.4914
      8 N           4.8387   -1.9744    0.0000 N.3     1  UNL1       -0.2946
      9 C           5.7448   -1.4606    0.0000 C.3     1  UNL1        0.0808
     10 C           5.7563   -0.4606    0.0000 C.3     1  UNL1        0.1489
     11 C           6.6387   -1.9952    0.0000 C.ar    1  UNL1        0.0223
     12 C           4.8387   -3.0161    0.0000 C.3     1  UNL1        0.0033
     13 C           6.6387   -2.9952    0.0000 C.ar    1  UNL1       -0.0342
     14 C           5.7448   -3.5299    0.0000 C.3     1  UNL1       -0.0143
     15 C           4.9584    0.1322    0.0000 C.ar    1  UNL1        0.0123
     16 C           7.5047   -1.4952    0.0000 C.ar    1  UNL1        0.1704
     17 C           3.9746   -1.4711    0.0000 C.3     1  UNL1       -0.0120
     18 C           5.2800    1.0791    0.0000 C.ar    1  UNL1        0.1108
     19 C           7.5047   -3.4952    0.0000 C.ar    1  UNL1       -0.0124
     20 C           8.3708   -1.9952    0.0000 C.ar    1  UNL1        0.2079
     21 C           8.3708   -2.9952    0.0000 C.ar    1  UNL1        0.1702
     22 C           6.2740    1.0633    0.0000 C.2     1  UNL1        0.3439
     23 C           3.9776   -0.0627    0.0000 C.ar    1  UNL1       -0.0505
     24 C           4.6208    1.8311    0.0000 C.ar    1  UNL1        0.1758
     25 C           3.3184    0.6893    0.0000 C.ar    1  UNL1       -0.0159
     26 C           3.6400    1.6362    0.0000 C.ar    1  UNL1        0.1623
     27 C           9.9006   -2.4952    0.0000 C.3     1  UNL1        0.2334
     28 C           8.3708    0.0048    0.0000 C.3     1  UNL1        0.0790
     29 C           4.2833    3.5299    0.0000 C.3     1  UNL1        0.0790
     30 C           2.0000    2.1933    0.0000 C.3     1  UNL1        0.0790
     31 H           5.0128   -1.0285    0.0000 H       1  UNL1        0.0554
     32 H           6.5090   -0.8556    0.0000 H       1  UNL1        0.0805
     33 H           4.2278   -2.9100    0.0000 H       1  UNL1        0.0430
     34 H           4.6296   -3.5998    0.0000 H       1  UNL1        0.0430
     35 H           5.3511   -4.0089    0.0000 H       1  UNL1        0.0326
     36 H           6.1494   -3.9997    0.0000 H       1  UNL1        0.0326
     37 H           4.2867   -0.9354    0.0000 H       1  UNL1        0.0391
     38 H           3.4389   -1.1590    0.0000 H       1  UNL1        0.0391
     39 H           3.6625   -2.0068    0.0000 H       1  UNL1        0.0391
     40 H           7.5047   -4.1152    0.0000 H       1  UNL1        0.0658
     41 H           3.7782   -0.6497    0.0000 H       1  UNL1        0.0623
     42 H           2.7103    0.5685    0.0000 H       1  UNL1        0.0655
     43 H          10.3615   -2.9100    0.0000 H       1  UNL1        0.1166
     44 H          10.3615   -2.0805    0.0000 H       1  UNL1        0.1166
     45 H           8.6808   -0.5322    0.0000 H       1  UNL1        0.0660
     46 H           8.9077    0.3148    0.0000 H       1  UNL1        0.0660
     47 H           8.0608    0.5417    0.0000 H       1  UNL1        0.0660
     48 H           4.7495    3.9386    0.0000 H       1  UNL1        0.0660
     49 H           3.8746    3.9961    0.0000 H       1  UNL1        0.0660
     50 H           3.8171    3.1212    0.0000 H       1  UNL1        0.0660
     51 H           1.8792    2.8014    0.0000 H       1  UNL1        0.0660
     52 H           1.3919    2.0724    0.0000 H       1  UNL1        0.0660
     53 H           2.1208    1.5852    0.0000 H       1  UNL1        0.0660
@<TRIPOS>BOND
     1     1    10    1
     2     1    22    1
     3     2    16    1
     4     2    28    1
     5     3    20    1
     6     3    27    1
     7     4    21    1
     8     4    27    1
     9     5    24    1
    10     5    29    1
    11     6    22    2
    12     7    26    1
    13     7    30    1
    14     8     9    1
    15     8    12    1
    16     8    17    1
    17     9    10    1
    18     9    11    1
    19     9    31    1
    20    10    15    1
    21    10    32    1
    22    11    13   ar
    23    11    16   ar
    24    12    14    1
    25    12    33    1
    26    12    34    1
    27    13    14    1
    28    13    19   ar
    29    14    35    1
    30    14    36    1
    31    15    18   ar
    32    15    23   ar
    33    16    20   ar
    34    17    37    1
    35    17    38    1
    36    17    39    1
    37    18    22    1
    38    18    24   ar
    39    19    21   ar
    40    19    40    1
    41    20    21   ar
    42    23    25   ar
    43    23    41    1
    44    24    26   ar
    45    25    26   ar
    46    25    42    1
    47    27    43    1
    48    27    44    1
    49    28    45    1
    50    28    46    1
    51    28    47    1
    52    29    48    1
    53    29    49    1
    54    29    50    1
    55    30    51    1
    56    30    52    1
    57    30    53    1
