@<TRIPOS>MOLECULE
IMPHY008256
 17 16 0 0 0
SMALL
GASTEIGER

@<TRIPOS>ATOM
      1 O           2.8660   -0.7500    0.0000 O.2     1  UNL1       -0.2977
      2 C           3.7320    0.7500    0.0000 C.3     1  UNL1        0.0090
      3 C           4.5981    0.2500    0.0000 C.3     1  UNL1       -0.0283
      4 C           2.8660    0.2500    0.0000 C.2     1  UNL1        0.1306
      5 C           5.4641    0.7500    0.0000 C.2     1  UNL1       -0.0907
      6 C           2.0000    0.7500    0.0000 C.3     1  UNL1       -0.0061
      7 C           6.3301    0.2500    0.0000 C.2     1  UNL1       -0.1026
      8 H           4.1306    1.2250    0.0000 H       1  UNL1        0.0344
      9 H           3.3335    1.2250    0.0000 H       1  UNL1        0.0344
     10 H           4.1996   -0.2249    0.0000 H       1  UNL1        0.0311
     11 H           4.9966   -0.2249    0.0000 H       1  UNL1        0.0311
     12 H           5.4641    1.3700    0.0000 H       1  UNL1        0.0566
     13 H           2.3100    1.2869    0.0000 H       1  UNL1        0.0306
     14 H           1.4631    1.0600    0.0000 H       1  UNL1        0.0306
     15 H           1.6900    0.2131    0.0000 H       1  UNL1        0.0306
     16 H           6.3301   -0.3700    0.0000 H       1  UNL1        0.0532
     17 H           6.8671    0.5600    0.0000 H       1  UNL1        0.0532
@<TRIPOS>BOND
     1     1     4    2
     2     2     3    1
     3     2     4    1
     4     2     8    1
     5     2     9    1
     6     3     5    1
     7     3    10    1
     8     3    11    1
     9     4     6    1
    10     5     7    2
    11     5    12    1
    12     6    13    1
    13     6    14    1
    14     6    15    1
    15     7    16    1
    16     7    17    1
