@<TRIPOS>MOLECULE
IMPHY008439
 49 50 0 0 0
SMALL
GASTEIGER

@<TRIPOS>ATOM
      1 O           6.3406   -3.1944    0.0000 O.3     1  UNL1       -0.4773
      2 O           4.6087   -3.1743    0.0000 O.2     1  UNL1       -0.2455
      3 O           2.2320    2.9483    0.0000 O.2     1  UNL1       -0.2977
      4 C           3.7320    0.3502    0.0000 C.3     1  UNL1       -0.0255
      5 C           4.5981   -0.1498    0.0000 C.3     1  UNL1       -0.0255
      6 C           4.5981   -1.1498    0.0000 C.3     1  UNL1        0.0027
      7 C           2.8660   -0.1498    0.0000 C.3     1  UNL1       -0.0382
      8 C           3.7320   -1.6498    0.0000 C.3     1  UNL1       -0.0429
      9 C           2.8660   -1.1498    0.0000 C.3     1  UNL1       -0.0492
     10 C           5.4920    0.3849    0.0000 C.3     1  UNL1       -0.0454
     11 C           3.2320    1.2162    0.0000 C.3     1  UNL1       -0.0404
     12 C           5.4920   -1.6844    0.0000 C.2     1  UNL1        0.0387
     13 C           4.2320    1.2162    0.0000 C.3     1  UNL1       -0.0590
     14 C           4.5981   -2.1498    0.0000 C.3     1  UNL1       -0.0551
     15 C           6.3981   -0.1290    0.0000 C.3     1  UNL1       -0.0337
     16 C           2.0000    0.3502    0.0000 C.3     1  UNL1       -0.0619
     17 C           6.3981   -1.1706    0.0000 C.2     1  UNL1       -0.0735
     18 C           3.7320    2.0823    0.0000 C.3     1  UNL1        0.0061
     19 C           5.4804   -2.6844    0.0000 C.2     1  UNL1        0.3330
     20 C           3.2320    2.9483    0.0000 C.2     1  UNL1        0.1303
     21 C           3.7320    3.8143    0.0000 C.3     1  UNL1       -0.0061
     22 H           4.5915    0.7002    0.0000 H       1  UNL1        0.0315
     23 H           2.8660    0.4702    0.0000 H       1  UNL1        0.0303
     24 H           3.3335   -2.1247    0.0000 H       1  UNL1        0.0274
     25 H           4.1306   -2.1247    0.0000 H       1  UNL1        0.0274
     26 H           2.2554   -1.0421    0.0000 H       1  UNL1        0.0268
     27 H           2.6540   -1.7324    0.0000 H       1  UNL1        0.0268
     28 H           5.8856    0.8639    0.0000 H       1  UNL1        0.0271
     29 H           5.0874    0.8547    0.0000 H       1  UNL1        0.0271
     30 H           2.7571    1.6148    0.0000 H       1  UNL1        0.0275
     31 H           2.7571    0.8177    0.0000 H       1  UNL1        0.0275
     32 H           4.7690    0.9062    0.0000 H       1  UNL1        0.0235
     33 H           4.5420    1.7532    0.0000 H       1  UNL1        0.0235
     34 H           3.6951    1.5262    0.0000 H       1  UNL1        0.0235
     35 H           3.9781   -2.1498    0.0000 H       1  UNL1        0.0238
     36 H           4.5981   -2.7698    0.0000 H       1  UNL1        0.0238
     37 H           5.2181   -2.1498    0.0000 H       1  UNL1        0.0238
     38 H           7.0089   -0.2351    0.0000 H       1  UNL1        0.0308
     39 H           6.6071    0.4547    0.0000 H       1  UNL1        0.0308
     40 H           2.3100    0.8872    0.0000 H       1  UNL1        0.0233
     41 H           1.4631    0.6602    0.0000 H       1  UNL1        0.0233
     42 H           1.6900   -0.1867    0.0000 H       1  UNL1        0.0233
     43 H           6.9338   -1.4827    0.0000 H       1  UNL1        0.0577
     44 H           4.2070    1.6837    0.0000 H       1  UNL1        0.0342
     45 H           4.2070    2.4808    0.0000 H       1  UNL1        0.0342
     46 H           6.3335   -3.8143    0.0000 H       1  UNL1        0.2954
     47 H           4.2690    3.5043    0.0000 H       1  UNL1        0.0306
     48 H           4.0420    4.3512    0.0000 H       1  UNL1        0.0306
     49 H           3.1951    4.1243    0.0000 H       1  UNL1        0.0306
@<TRIPOS>BOND
     1     1    19    1
     2     1    46    1
     3     2    19    2
     4     3    20    2
     5     4     5    1
     6     4     7    1
     7     4    11    1
     8     4    13    1
     9     5     6    1
    10     5    10    1
    11     5    22    1
    12     6     8    1
    13     6    12    1
    14     6    14    1
    15     7     9    1
    16     7    16    1
    17     7    23    1
    18     8     9    1
    19     8    24    1
    20     8    25    1
    21     9    26    1
    22     9    27    1
    23    10    15    1
    24    10    28    1
    25    10    29    1
    26    11    18    1
    27    11    30    1
    28    11    31    1
    29    12    17    2
    30    12    19    1
    31    13    32    1
    32    13    33    1
    33    13    34    1
    34    14    35    1
    35    14    36    1
    36    14    37    1
    37    15    17    1
    38    15    38    1
    39    15    39    1
    40    16    40    1
    41    16    41    1
    42    16    42    1
    43    17    43    1
    44    18    20    1
    45    18    44    1
    46    18    45    1
    47    20    21    1
    48    21    47    1
    49    21    48    1
    50    21    49    1
