@<TRIPOS>MOLECULE
IMPHY016970
 47 47 0 0 0
SMALL
GASTEIGER

@<TRIPOS>ATOM
      1 O           2.0000   -1.7520    0.0000 O.2     1  UNL1       -0.2974
      2 C           4.5303   -1.8786    0.0000 C.3     1  UNL1       -0.0372
      3 C           5.5085   -1.6707    0.0000 C.3     1  UNL1       -0.0501
      4 C           6.3175   -1.0829    0.0000 C.3     1  UNL1       -0.0528
      5 C           6.8175   -0.2169    0.0000 C.3     1  UNL1       -0.0530
      6 C           6.9220    0.7777    0.0000 C.3     1  UNL1       -0.0531
      7 C           6.6130    1.7287    0.0000 C.3     1  UNL1       -0.0531
      8 C           3.5522   -1.6707    0.0000 C.3     1  UNL1        0.0084
      9 C           5.9438    2.4718    0.0000 C.3     1  UNL1       -0.0531
     10 C           5.0303    2.8786    0.0000 C.3     1  UNL1       -0.0531
     11 C           4.0303    2.8786    0.0000 C.3     1  UNL1       -0.0531
     12 C           3.1168    2.4718    0.0000 C.3     1  UNL1       -0.0530
     13 C           2.4476    1.7287    0.0000 C.3     1  UNL1       -0.0527
     14 C           2.1386    0.7777    0.0000 C.3     1  UNL1       -0.0464
     15 C           2.2431   -0.2169    0.0000 C.3     1  UNL1        0.0058
     16 C           2.7431   -1.0829    0.0000 C.2     1  UNL1        0.1336
     17 C           4.5303   -2.8786    0.0000 C.3     1  UNL1       -0.0620
     18 H           3.8697   -2.4135    0.0000 H       1  UNL1        0.0302
     19 H           5.4008   -2.2813    0.0000 H       1  UNL1        0.0268
     20 H           5.2563   -1.1043    0.0000 H       1  UNL1        0.0268
     21 H           6.4675   -1.6845    0.0000 H       1  UNL1        0.0265
     22 H           5.8567   -0.6680    0.0000 H       1  UNL1        0.0265
     23 H           7.1992   -0.7054    0.0000 H       1  UNL1        0.0265
     24 H           6.2278   -0.0253    0.0000 H       1  UNL1        0.0265
     25 H           7.4694    0.4866    0.0000 H       1  UNL1        0.0265
     26 H           6.3054    0.7128    0.0000 H       1  UNL1        0.0265
     27 H           7.2315    1.6855    0.0000 H       1  UNL1        0.0265
     28 H           6.0761    1.4187    0.0000 H       1  UNL1        0.0265
     29 H           3.0264   -1.9992    0.0000 H       1  UNL1        0.0344
     30 H           3.8043   -1.1043    0.0000 H       1  UNL1        0.0344
     31 H           6.5265    2.6839    0.0000 H       1  UNL1        0.0265
     32 H           5.5794    1.9703    0.0000 H       1  UNL1        0.0265
     33 H           5.4763    3.3093    0.0000 H       1  UNL1        0.0265
     34 H           4.9014    2.2721    0.0000 H       1  UNL1        0.0265
     35 H           4.2626    3.4534    0.0000 H       1  UNL1        0.0265
     36 H           4.1592    2.2721    0.0000 H       1  UNL1        0.0265
     37 H           3.0951    3.0915    0.0000 H       1  UNL1        0.0265
     38 H           3.4812    1.9703    0.0000 H       1  UNL1        0.0265
     39 H           2.1758    2.2860    0.0000 H       1  UNL1        0.0265
     40 H           2.9846    1.4187    0.0000 H       1  UNL1        0.0265
     41 H           1.6637    1.1762    0.0000 H       1  UNL1        0.0269
     42 H           2.7552    0.7128    0.0000 H       1  UNL1        0.0269
     43 H           1.6472   -0.0460    0.0000 H       1  UNL1        0.0342
     44 H           2.8328   -0.0253    0.0000 H       1  UNL1        0.0342
     45 H           3.9103   -2.8786    0.0000 H       1  UNL1        0.0233
     46 H           4.5303   -3.4986    0.0000 H       1  UNL1        0.0233
     47 H           5.1503   -2.8786    0.0000 H       1  UNL1        0.0233
@<TRIPOS>BOND
     1     1    16    2
     2     2     3    1
     3     2     8    1
     4     2    17    1
     5     2    18    1
     6     3     4    1
     7     3    19    1
     8     3    20    1
     9     4     5    1
    10     4    21    1
    11     4    22    1
    12     5     6    1
    13     5    23    1
    14     5    24    1
    15     6     7    1
    16     6    25    1
    17     6    26    1
    18     7     9    1
    19     7    27    1
    20     7    28    1
    21     8    16    1
    22     8    29    1
    23     8    30    1
    24     9    10    1
    25     9    31    1
    26     9    32    1
    27    10    11    1
    28    10    33    1
    29    10    34    1
    30    11    12    1
    31    11    35    1
    32    11    36    1
    33    12    13    1
    34    12    37    1
    35    12    38    1
    36    13    14    1
    37    13    39    1
    38    13    40    1
    39    14    15    1
    40    14    41    1
    41    14    42    1
    42    15    16    1
    43    15    43    1
    44    15    44    1
    45    17    45    1
    46    17    46    1
    47    17    47    1
