@<TRIPOS>MOLECULE
IMPHY001625
 31 32 0 0 0
SMALL
GASTEIGER

@<TRIPOS>ATOM
      1 CL          6.0682   -1.9254    0.0000 Cl      1  UNL1        0.0000
      2 O           6.0682   -0.9254    0.0000 O.2     2  UNL2       -0.2036
      3 O           4.3198    2.1092    0.0000 O.3     2  UNL2       -0.5057
      4 O           2.5381   -0.9495    0.0000 O.3     2  UNL2       -0.5063
      5 O          10.3984   -2.4254    0.0000 O.3     2  UNL2       -0.5068
      6 C           5.2022    0.5746    0.0000 C.ar    2  UNL2        0.1206
      7 C           5.2022   -0.4254    0.0000 C.ar    2  UNL2        0.3705
      8 C           6.9343   -0.4254    0.0000 C.ar    2  UNL2        0.3635
      9 C           7.8003   -0.9254    0.0000 C.ar    2  UNL2        0.0791
     10 C           6.0682    1.0746    0.0000 C.ar    2  UNL2       -0.0332
     11 C           6.9343    0.5746    0.0000 C.ar    2  UNL2        0.0441
     12 C           4.3083    1.1093    0.0000 C.ar    2  UNL2        0.1364
     13 C           4.3083   -0.9601    0.0000 C.ar    2  UNL2        0.0847
     14 C           3.4022   -0.4462    0.0000 C.ar    2  UNL2        0.1293
     15 C           3.4022    0.5954    0.0000 C.ar    2  UNL2        0.0225
     16 C           7.8003   -1.9254    0.0000 C.ar    2  UNL2       -0.0422
     17 C           8.6663   -0.4254    0.0000 C.ar    2  UNL2       -0.0422
     18 C           8.6663   -2.4254    0.0000 C.ar    2  UNL2       -0.0193
     19 C           9.5323   -0.9254    0.0000 C.ar    2  UNL2       -0.0193
     20 C           9.5323   -1.9254    0.0000 C.ar    2  UNL2        0.1169
     21 H           6.0682    1.6946    0.0000 H       2  UNL2        0.0631
     22 H           7.4712    0.8846    0.0000 H       2  UNL2        0.0712
     23 H           4.3154   -1.5800    0.0000 H       2  UNL2        0.0749
     24 H           2.8665    0.9075    0.0000 H       2  UNL2        0.0691
     25 H           7.2634   -2.2354    0.0000 H       2  UNL2        0.0628
     26 H           8.6663    0.1946    0.0000 H       2  UNL2        0.0628
     27 H           8.6663   -3.0454    0.0000 H       2  UNL2        0.0654
     28 H          10.0693   -0.6154    0.0000 H       2  UNL2        0.0654
     29 H           3.7865    2.4254    0.0000 H       2  UNL2        0.2922
     30 H           2.0000   -0.6416    0.0000 H       2  UNL2        0.2921
     31 H          10.9353   -2.1154    0.0000 H       2  UNL2        0.2921
@<TRIPOS>UNITY_ATOM_ATTR
1 1
charge -1
2 1
charge 1
@<TRIPOS>BOND
     1     2     7   ar
     2     2     8   ar
     3     3    12    1
     4     3    29    1
     5     4    14    1
     6     4    30    1
     7     5    20    1
     8     5    31    1
     9     6     7   ar
    10     6    10   ar
    11     6    12   ar
    12     7    13   ar
    13     8     9    1
    14     8    11   ar
    15     9    16   ar
    16     9    17   ar
    17    10    11   ar
    18    10    21    1
    19    11    22    1
    20    12    15   ar
    21    13    14   ar
    22    13    23    1
    23    14    15   ar
    24    15    24    1
    25    16    18   ar
    26    16    25    1
    27    17    19   ar
    28    17    26    1
    29    18    20   ar
    30    18    27    1
    31    19    20   ar
    32    19    28    1
