@<TRIPOS>MOLECULE
IMPHY013123
 85 88 0 0 0
SMALL
GASTEIGER

@<TRIPOS>ATOM
      1 O           2.5357   -3.2258    0.0000 O.3     1  UNL1       -0.3912
      2 C           7.9288   -1.1735    0.0000 C.3     1  UNL1       -0.0233
      3 C           7.9288   -0.1735    0.0000 C.3     1  UNL1       -0.0233
      4 C           7.0628   -1.6735    0.0000 C.3     1  UNL1       -0.0318
      5 C           6.1968   -1.1735    0.0000 C.3     1  UNL1       -0.0320
      6 C           5.2868   -1.6803    0.0000 C.3     1  UNL1       -0.0255
      7 C           8.8750    0.1313    0.0000 C.3     1  UNL1       -0.0325
      8 C           5.2787   -2.7219    0.0000 C.3     1  UNL1       -0.0279
      9 C           7.0628    0.3265    0.0000 C.3     1  UNL1       -0.0466
     10 C           8.8750   -1.4782    0.0000 C.3     1  UNL1       -0.0466
     11 C           6.1968   -0.1735    0.0000 C.3     1  UNL1       -0.0489
     12 C           7.0789   -2.7150    0.0000 C.3     1  UNL1       -0.0491
     13 C           9.4586   -0.6735    0.0000 C.3     1  UNL1       -0.0489
     14 C           6.1808   -3.2427    0.0000 C.3     1  UNL1       -0.0489
     15 C           4.3433   -3.2716    0.0000 C.3     1  UNL1       -0.0056
     16 C           4.3599   -1.1162    0.0000 C.3     1  UNL1       -0.0447
     17 C           7.9288   -2.1735    0.0000 C.3     1  UNL1       -0.0588
     18 C           7.9288    0.8265    0.0000 C.3     1  UNL1       -0.0588
     19 C           9.1857    1.0818    0.0000 C.3     1  UNL1       -0.0405
     20 C           5.2945   -0.6803    0.0000 C.3     1  UNL1       -0.0590
     21 C           3.4037   -2.7291    0.0000 C.3     1  UNL1        0.0606
     22 C           3.4120   -1.6442    0.0000 C.3     1  UNL1       -0.0258
     23 C           3.8467   -4.1396    0.0000 C.3     1  UNL1       -0.0572
     24 C           4.8466   -4.1357    0.0000 C.3     1  UNL1       -0.0572
     25 C          10.1642    1.2880    0.0000 C.3     1  UNL1       -0.0502
     26 C           8.5179    1.8261    0.0000 C.3     1  UNL1       -0.0621
     27 C          10.4749    2.2385    0.0000 C.3     1  UNL1       -0.0526
     28 C          11.4534    2.4448    0.0000 C.3     1  UNL1       -0.0507
     29 C          11.7640    3.3953    0.0000 C.3     1  UNL1       -0.0467
     30 C          12.7425    3.6015    0.0000 C.3     1  UNL1       -0.0627
     31 C          11.0962    4.1396    0.0000 C.3     1  UNL1       -0.0627
     32 H           7.8022   -2.0928    0.0000 H       1  UNL1        0.0309
     33 H           6.9329   -0.7485    0.0000 H       1  UNL1        0.0309
     34 H           9.7148    0.2632    0.0000 H       1  UNL1        0.0309
     35 H           5.2820   -3.5719    0.0000 H       1  UNL1        0.0312
     36 H           7.4613    0.8015    0.0000 H       1  UNL1        0.0271
     37 H           6.6643    0.8015    0.0000 H       1  UNL1        0.0271
     38 H           8.6240   -2.0451    0.0000 H       1  UNL1        0.0271
     39 H           9.4124   -1.7874    0.0000 H       1  UNL1        0.0271
     40 H           5.9847    0.4092    0.0000 H       1  UNL1        0.0268
     41 H           5.5862   -0.2811    0.0000 H       1  UNL1        0.0268
     42 H           7.2969   -3.2954    0.0000 H       1  UNL1        0.0268
     43 H           7.6880   -2.5995    0.0000 H       1  UNL1        0.0268
     44 H           9.9195   -1.0882    0.0000 H       1  UNL1        0.0268
     45 H           9.9195   -0.2587    0.0000 H       1  UNL1        0.0268
     46 H           5.7835   -3.7187    0.0000 H       1  UNL1        0.0268
     47 H           6.5818   -3.7156    0.0000 H       1  UNL1        0.0268
     48 H           4.7681   -0.6496    0.0000 H       1  UNL1        0.0271
     49 H           3.9700   -0.6342    0.0000 H       1  UNL1        0.0271
     50 H           7.3088   -2.1735    0.0000 H       1  UNL1        0.0235
     51 H           7.9288   -2.7935    0.0000 H       1  UNL1        0.0235
     52 H           8.5488   -2.1735    0.0000 H       1  UNL1        0.0235
     53 H           8.5488    0.8265    0.0000 H       1  UNL1        0.0235
     54 H           7.9288    1.4465    0.0000 H       1  UNL1        0.0235
     55 H           7.3088    0.8265    0.0000 H       1  UNL1        0.0235
     56 H           9.3783    1.6711    0.0000 H       1  UNL1        0.0301
     57 H           5.9145   -0.6851    0.0000 H       1  UNL1        0.0235
     58 H           5.2993   -0.0604    0.0000 H       1  UNL1        0.0235
     59 H           4.6745   -0.6756    0.0000 H       1  UNL1        0.0235
     60 H           3.4025   -3.3491    0.0000 H       1  UNL1        0.0599
     61 H           3.2075   -1.0589    0.0000 H       1  UNL1        0.0290
     62 H           2.8004   -1.7456    0.0000 H       1  UNL1        0.0290
     63 H           3.3085   -3.8316    0.0000 H       1  UNL1        0.0236
     64 H           3.5387   -4.6777    0.0000 H       1  UNL1        0.0236
     65 H           4.3848   -4.4475    0.0000 H       1  UNL1        0.0236
     66 H           4.3109   -4.4478    0.0000 H       1  UNL1        0.0236
     67 H           5.1587   -4.6715    0.0000 H       1  UNL1        0.0236
     68 H           5.3824   -3.8236    0.0000 H       1  UNL1        0.0236
     69 H          10.1848    0.6684    0.0000 H       1  UNL1        0.0268
     70 H          10.7780    1.2007    0.0000 H       1  UNL1        0.0268
     71 H           8.9793    2.2402    0.0000 H       1  UNL1        0.0233
     72 H           8.1038    2.2876    0.0000 H       1  UNL1        0.0233
     73 H           8.0564    1.4120    0.0000 H       1  UNL1        0.0233
     74 H           2.0000   -2.9137    0.0000 H       1  UNL1        0.2098
     75 H          10.4543    2.8582    0.0000 H       1  UNL1        0.0265
     76 H           9.8611    2.3259    0.0000 H       1  UNL1        0.0265
     77 H          11.4739    1.8251    0.0000 H       1  UNL1        0.0268
     78 H          12.0672    2.3574    0.0000 H       1  UNL1        0.0268
     79 H          12.1781    2.9338    0.0000 H       1  UNL1        0.0295
     80 H          12.8704    2.9948    0.0000 H       1  UNL1        0.0232
     81 H          13.3492    3.7294    0.0000 H       1  UNL1        0.0232
     82 H          12.6147    4.2082    0.0000 H       1  UNL1        0.0232
     83 H          11.5577    4.5536    0.0000 H       1  UNL1        0.0232
     84 H          10.6821    4.6010    0.0000 H       1  UNL1        0.0232
     85 H          10.6347    3.7255    0.0000 H       1  UNL1        0.0232
@<TRIPOS>BOND
     1    21     1    1
     2     1    74    1
     3     2     3    1
     4     2     4    1
     5     2    10    1
     6     2    17    1
     7     3     7    1
     8     3     9    1
     9     3    18    1
    10     4     5    1
    11     4    12    1
    12     4    32    1
    13     5     6    1
    14     5    11    1
    15     5    33    1
    16     6     8    1
    17     6    16    1
    18     6    20    1
    19     7    13    1
    20     7    19    1
    21     7    34    1
    22     8    14    1
    23     8    15    1
    24     8    35    1
    25     9    11    1
    26     9    36    1
    27     9    37    1
    28    10    13    1
    29    10    38    1
    30    10    39    1
    31    11    40    1
    32    11    41    1
    33    12    14    1
    34    12    42    1
    35    12    43    1
    36    13    44    1
    37    13    45    1
    38    14    46    1
    39    14    47    1
    40    15    21    1
    41    15    23    1
    42    15    24    1
    43    16    22    1
    44    16    48    1
    45    16    49    1
    46    17    50    1
    47    17    51    1
    48    17    52    1
    49    18    53    1
    50    18    54    1
    51    18    55    1
    52    19    25    1
    53    19    26    1
    54    19    56    1
    55    20    57    1
    56    20    58    1
    57    20    59    1
    58    21    22    1
    59    21    60    1
    60    22    61    1
    61    22    62    1
    62    23    63    1
    63    23    64    1
    64    23    65    1
    65    24    66    1
    66    24    67    1
    67    24    68    1
    68    25    27    1
    69    25    69    1
    70    25    70    1
    71    26    71    1
    72    26    72    1
    73    26    73    1
    74    27    28    1
    75    27    75    1
    76    27    76    1
    77    28    29    1
    78    28    77    1
    79    28    78    1
    80    29    30    1
    81    29    31    1
    82    29    79    1
    83    30    80    1
    84    30    81    1
    85    30    82    1
    86    31    83    1
    87    31    84    1
    88    31    85    1
