@<TRIPOS>MOLECULE
IMPHY014581
 36 37 0 0 0
SMALL
GASTEIGER

@<TRIPOS>ATOM
      1 C           5.4641   -0.7500    0.0000 C.3     1  UNL1       -0.0110
      2 C           4.5981   -1.2500    0.0000 C.3     1  UNL1       -0.0434
      3 C           5.4641    0.2500    0.0000 C.2     1  UNL1       -0.0670
      4 C           6.3580   -1.2847    0.0000 C.3     1  UNL1       -0.0436
      5 C           3.7320    0.2500    0.0000 C.3     1  UNL1       -0.0167
      6 C           3.7320   -0.7500    0.0000 C.3     1  UNL1       -0.0455
      7 C           4.5981    0.7500    0.0000 C.3     1  UNL1       -0.0247
      8 C           7.2641   -0.7708    0.0000 C.3     1  UNL1       -0.0488
      9 C           5.4641   -1.7500    0.0000 C.3     1  UNL1       -0.0558
     10 C           6.3580    0.7847    0.0000 C.2     1  UNL1       -0.0842
     11 C           7.2641    0.2708    0.0000 C.3     1  UNL1       -0.0345
     12 C           2.8660    0.7500    0.0000 C.2     1  UNL1       -0.0763
     13 C           2.0000    0.2500    0.0000 C.3     1  UNL1       -0.0438
     14 C           2.8660    1.7500    0.0000 C.2     1  UNL1       -0.0994
     15 H           4.1996   -1.7250    0.0000 H       1  UNL1        0.0274
     16 H           4.9966   -1.7250    0.0000 H       1  UNL1        0.0274
     17 H           5.9534   -1.7544    0.0000 H       1  UNL1        0.0274
     18 H           6.7517   -1.7637    0.0000 H       1  UNL1        0.0274
     19 H           3.7320    0.8700    0.0000 H       1  UNL1        0.0348
     20 H           3.1215   -0.6423    0.0000 H       1  UNL1        0.0271
     21 H           3.5200   -1.3326    0.0000 H       1  UNL1        0.0271
     22 H           4.9966    1.2250    0.0000 H       1  UNL1        0.0316
     23 H           4.1996    1.2250    0.0000 H       1  UNL1        0.0316
     24 H           7.4732   -1.3545    0.0000 H       1  UNL1        0.0268
     25 H           7.8750   -0.6647    0.0000 H       1  UNL1        0.0268
     26 H           4.8441   -1.7500    0.0000 H       1  UNL1        0.0238
     27 H           5.4641   -2.3700    0.0000 H       1  UNL1        0.0238
     28 H           6.0841   -1.7500    0.0000 H       1  UNL1        0.0238
     29 H           6.3509    1.4046    0.0000 H       1  UNL1        0.0572
     30 H           7.8750    0.1647    0.0000 H       1  UNL1        0.0307
     31 H           7.4732    0.8545    0.0000 H       1  UNL1        0.0307
     32 H           1.6900    0.7869    0.0000 H       1  UNL1        0.0274
     33 H           1.4631   -0.0600    0.0000 H       1  UNL1        0.0274
     34 H           2.3100   -0.2869    0.0000 H       1  UNL1        0.0274
     35 H           3.4030    2.0600    0.0000 H       1  UNL1        0.0534
     36 H           2.3291    2.0600    0.0000 H       1  UNL1        0.0534
@<TRIPOS>BOND
     1     1     2    1
     2     1     3    1
     3     1     4    1
     4     1     9    1
     5     2     6    1
     6     2    15    1
     7     2    16    1
     8     3     7    1
     9     3    10    2
    10     4     8    1
    11     4    17    1
    12     4    18    1
    13     5     6    1
    14     5     7    1
    15     5    12    1
    16     5    19    1
    17     6    20    1
    18     6    21    1
    19     7    22    1
    20     7    23    1
    21     8    11    1
    22     8    24    1
    23     8    25    1
    24     9    26    1
    25     9    27    1
    26     9    28    1
    27    10    11    1
    28    10    29    1
    29    11    30    1
    30    11    31    1
    31    12    13    1
    32    12    14    2
    33    13    32    1
    34    13    33    1
    35    13    34    1
    36    14    35    1
    37    14    36    1
