@<TRIPOS>MOLECULE
IMPHY012962
 51 53 0 0 0
SMALL
GASTEIGER

@<TRIPOS>ATOM
      1 O           4.2496    0.1857    0.0000 O.3     1  UNL1       -0.4565
      2 O           6.7897   -0.3031    0.0000 O.3     1  UNL1       -0.4623
      3 O           6.2018   -2.7355    0.0000 O.3     1  UNL1       -0.3774
      4 O           2.5369    0.1969    0.0000 O.2     1  UNL1       -0.2453
      5 O           7.6557   -1.7808    0.0000 O.2     1  UNL1       -0.2476
      6 N           5.0964    2.6299    0.0000 N.3     1  UNL1       -0.2954
      7 C           5.0964    1.6522    0.0000 C.3     1  UNL1        0.0534
      8 C           5.9430    1.1634    0.0000 C.3     1  UNL1        0.0135
      9 C           4.2496    1.1634    0.0000 C.3     1  UNL1        0.1203
     10 C           6.6401    2.0922    0.0000 C.3     1  UNL1       -0.0327
     11 C           6.0318    2.8960    0.0000 C.3     1  UNL1       -0.0003
     12 C           4.0765    2.8743    0.0000 C.3     1  UNL1        0.0027
     13 C           3.5551    2.0922    0.0000 C.3     1  UNL1       -0.0013
     14 C           5.9430    0.1857    0.0000 C.3     1  UNL1        0.0969
     15 C           5.9430   -1.7696    0.0000 C.3     1  UNL1        0.1620
     16 C           3.4030   -0.3031    0.0000 C.2     1  UNL1        0.3352
     17 C           5.0964   -1.2808    0.0000 C.3     1  UNL1       -0.0006
     18 C           6.7897   -1.2808    0.0000 C.2     1  UNL1        0.3392
     19 C           4.2496   -1.7696    0.0000 C.3     1  UNL1       -0.0155
     20 C           3.4030   -1.2808    0.0000 C.2     1  UNL1        0.0328
     21 C           5.2360   -2.4768    0.0000 C.3     1  UNL1       -0.0253
     22 C           5.0964   -0.2808    0.0000 C.3     1  UNL1       -0.0590
     23 C           2.5369   -1.7808    0.0000 C.2     1  UNL1       -0.0771
     24 C           2.5370   -2.7808    0.0000 C.3     1  UNL1       -0.0461
     25 H           5.0964    0.8022    0.0000 H       1  UNL1        0.0503
     26 H           6.7494    0.8945    0.0000 H       1  UNL1        0.0350
     27 H           3.4430    0.8952    0.0000 H       1  UNL1        0.0750
     28 H           7.0992    1.6755    0.0000 H       1  UNL1        0.0282
     29 H           7.0976    2.5106    0.0000 H       1  UNL1        0.0282
     30 H           6.5685    3.2064    0.0000 H       1  UNL1        0.0427
     31 H           5.7900    3.4669    0.0000 H       1  UNL1        0.0427
     32 H           4.2907    3.4561    0.0000 H       1  UNL1        0.0428
     33 H           3.5238    3.1553    0.0000 H       1  UNL1        0.0428
     34 H           3.0815    2.4923    0.0000 H       1  UNL1        0.0314
     35 H           3.1038    1.6670    0.0000 H       1  UNL1        0.0314
     36 H           5.3324    0.2934    0.0000 H       1  UNL1        0.0701
     37 H           5.7310   -0.3969    0.0000 H       1  UNL1        0.0701
     38 H           5.6333   -0.9708    0.0000 H       1  UNL1        0.0334
     39 H           3.8511   -2.2445    0.0000 H       1  UNL1        0.0319
     40 H           4.6481   -2.2446    0.0000 H       1  UNL1        0.0319
     41 H           4.7975   -2.0384    0.0000 H       1  UNL1        0.0263
     42 H           4.7976   -2.9152    0.0000 H       1  UNL1        0.0263
     43 H           5.6744   -2.9151    0.0000 H       1  UNL1        0.0263
     44 H           5.7164   -0.2808    0.0000 H       1  UNL1        0.0234
     45 H           5.0964    0.3392    0.0000 H       1  UNL1        0.0234
     46 H           4.4764   -0.2808    0.0000 H       1  UNL1        0.0234
     47 H           6.8007   -2.8960    0.0000 H       1  UNL1        0.2109
     48 H           2.0000   -1.4708    0.0000 H       1  UNL1        0.0574
     49 H           1.9170   -2.7808    0.0000 H       1  UNL1        0.0272
     50 H           2.5370   -3.4008    0.0000 H       1  UNL1        0.0272
     51 H           3.1570   -2.7808    0.0000 H       1  UNL1        0.0272
@<TRIPOS>BOND
     1     1     9    1
     2     1    16    1
     3     2    14    1
     4     2    18    1
     5    15     3    1
     6     3    47    1
     7     4    16    2
     8     5    18    2
     9     6     7    1
    10     6    11    1
    11     6    12    1
    12     7     8    1
    13     7     9    1
    14     7    25    1
    15     8    10    1
    16     8    14    1
    17     8    26    1
    18     9    13    1
    19     9    27    1
    20    10    11    1
    21    10    28    1
    22    10    29    1
    23    11    30    1
    24    11    31    1
    25    12    13    1
    26    12    32    1
    27    12    33    1
    28    13    34    1
    29    13    35    1
    30    14    36    1
    31    14    37    1
    32    15    17    1
    33    15    18    1
    34    15    21    1
    35    16    20    1
    36    17    19    1
    37    17    22    1
    38    17    38    1
    39    19    20    1
    40    19    39    1
    41    19    40    1
    42    20    23    2
    43    21    41    1
    44    21    42    1
    45    21    43    1
    46    22    44    1
    47    22    45    1
    48    22    46    1
    49    23    24    1
    50    23    48    1
    51    24    49    1
    52    24    50    1
    53    24    51    1
