@<TRIPOS>MOLECULE
IMPHY009767
 38 40 0 0 0
SMALL
GASTEIGER

@<TRIPOS>ATOM
      1 O           2.0000    0.4167    0.0000 O.2     1  UNL1       -0.2918
      2 C           4.5633    0.1079    0.0000 C.3     1  UNL1        0.0076
      3 C           5.3723    0.6957    0.0000 C.3     1  UNL1       -0.0282
      4 C           3.7543    0.6957    0.0000 C.3     1  UNL1        0.0400
      5 C           4.8730   -0.8367    0.0000 C.3     1  UNL1       -0.0422
      6 C           6.1750    0.1093    0.0000 C.3     1  UNL1       -0.0402
      7 C           5.0633    1.6468    0.0000 C.3     1  UNL1       -0.0482
      8 C           4.0633    1.6468    0.0000 C.3     1  UNL1       -0.0395
      9 C           5.8670   -0.8359    0.0000 C.3     1  UNL1       -0.0494
     10 C           4.2537   -0.8367    0.0000 C.2     1  UNL1       -0.0590
     11 C           2.9516    0.1093    0.0000 C.2     1  UNL1        0.1656
     12 C           2.9453    1.2835    0.0000 C.3     1  UNL1       -0.0517
     13 C           3.2596   -0.8359    0.0000 C.2     1  UNL1       -0.0079
     14 C           7.1266    0.4167    0.0000 C.3     1  UNL1       -0.0621
     15 C           4.8401   -1.6468    0.0000 C.3     1  UNL1       -0.0426
     16 C           2.6718   -1.6449    0.0000 C.3     1  UNL1       -0.0364
     17 H           5.8744    1.0595    0.0000 H       1  UNL1        0.0312
     18 H           4.2668   -0.9668    0.0000 H       1  UNL1        0.0274
     19 H           4.9386   -1.4532    0.0000 H       1  UNL1        0.0274
     20 H           6.6129   -0.3297    0.0000 H       1  UNL1        0.0301
     21 H           5.6698    1.7757    0.0000 H       1  UNL1        0.0269
     22 H           4.9985    2.2634    0.0000 H       1  UNL1        0.0269
     23 H           4.1281    2.2634    0.0000 H       1  UNL1        0.0275
     24 H           3.4569    1.7757    0.0000 H       1  UNL1        0.0275
     25 H           5.8024   -1.4525    0.0000 H       1  UNL1        0.0268
     26 H           6.4734   -0.9649    0.0000 H       1  UNL1        0.0268
     27 H           3.3097    1.7851    0.0000 H       1  UNL1        0.0239
     28 H           2.4437    1.6479    0.0000 H       1  UNL1        0.0239
     29 H           2.5808    0.7819    0.0000 H       1  UNL1        0.0239
     30 H           7.3172   -0.1733    0.0000 H       1  UNL1        0.0233
     31 H           7.7166    0.6072    0.0000 H       1  UNL1        0.0233
     32 H           6.9361    1.0067    0.0000 H       1  UNL1        0.0233
     33 H           4.3378   -2.0103    0.0000 H       1  UNL1        0.0275
     34 H           5.2036   -2.1490    0.0000 H       1  UNL1        0.0275
     35 H           5.3423   -1.2832    0.0000 H       1  UNL1        0.0275
     36 H           2.1702   -1.2804    0.0000 H       1  UNL1        0.0279
     37 H           2.3074   -2.1465    0.0000 H       1  UNL1        0.0279
     38 H           3.1734   -2.0093    0.0000 H       1  UNL1        0.0279
@<TRIPOS>BOND
     1     1    11    2
     2     2     3    1
     3     2     4    1
     4     2     5    1
     5     2    10    1
     6     3     6    1
     7     3     7    1
     8     3    17    1
     9     4     8    1
    10     4    11    1
    11     4    12    1
    12     5     9    1
    13     5    18    1
    14     5    19    1
    15     6     9    1
    16     6    14    1
    17     6    20    1
    18     7     8    1
    19     7    21    1
    20     7    22    1
    21     8    23    1
    22     8    24    1
    23     9    25    1
    24     9    26    1
    25    10    13    2
    26    10    15    1
    27    11    13    1
    28    12    27    1
    29    12    28    1
    30    12    29    1
    31    13    16    1
    32    14    30    1
    33    14    31    1
    34    14    32    1
    35    15    33    1
    36    15    34    1
    37    15    35    1
    38    16    36    1
    39    16    37    1
    40    16    38    1
