@<TRIPOS>MOLECULE
IMPHY008167
 41 43 0 0 0
SMALL
GASTEIGER

@<TRIPOS>ATOM
      1 O           9.8222   -1.4953    0.0000 O.3     1  UNL1       -0.4815
      2 O           8.0622    1.5394    0.0000 O.3     1  UNL1       -0.5053
      3 O           6.3301    1.5394    0.0000 O.2     1  UNL1       -0.2872
      4 C          10.7282   -0.9814    0.0000 C.3     1  UNL1        0.1235
      5 C          10.7282    0.0602    0.0000 C.2     1  UNL1       -0.0408
      6 C           8.9282    0.0394    0.0000 C.ar    1  UNL1        0.0586
      7 C           8.9282   -0.9606    0.0000 C.ar    1  UNL1        0.1324
      8 C          11.7282   -0.9853    0.0000 C.3     1  UNL1       -0.0215
      9 C          11.2249   -1.8494    0.0000 C.3     1  UNL1       -0.0215
     10 C           9.8222    0.5740    0.0000 C.2     1  UNL1       -0.0478
     11 C           8.0622    0.5394    0.0000 C.ar    1  UNL1        0.1382
     12 C           8.0622   -1.4606    0.0000 C.ar    1  UNL1       -0.0184
     13 C           7.1962    0.0394    0.0000 C.ar    1  UNL1        0.0638
     14 C           7.1962   -0.9606    0.0000 C.ar    1  UNL1       -0.0439
     15 C           6.3301    0.5394    0.0000 C.2     1  UNL1        0.1896
     16 C           5.4641    0.0394    0.0000 C.2     1  UNL1       -0.0137
     17 C           4.5981    0.5394    0.0000 C.2     1  UNL1       -0.0510
     18 C           3.7320    0.0394    0.0000 C.ar    1  UNL1       -0.0249
     19 C           2.8660    0.5394    0.0000 C.ar    1  UNL1       -0.0546
     20 C           3.7320   -0.9606    0.0000 C.ar    1  UNL1       -0.0546
     21 C           2.0000    0.0394    0.0000 C.ar    1  UNL1       -0.0612
     22 C           2.8660   -1.4606    0.0000 C.ar    1  UNL1       -0.0612
     23 C           2.0000   -0.9606    0.0000 C.ar    1  UNL1       -0.0617
     24 H          11.2639    0.3723    0.0000 H       1  UNL1        0.0611
     25 H          11.7258   -1.6053    0.0000 H       1  UNL1        0.0271
     26 H          10.6867   -2.1573    0.0000 H       1  UNL1        0.0271
     27 H          11.5328   -2.3875    0.0000 H       1  UNL1        0.0271
     28 H          11.7630   -1.5414    0.0000 H       1  UNL1        0.0271
     29 H          12.3482   -0.9877    0.0000 H       1  UNL1        0.0271
     30 H          11.7306   -0.3653    0.0000 H       1  UNL1        0.0271
     31 H           9.8150    1.1940    0.0000 H       1  UNL1        0.0624
     32 H           8.0622   -2.0806    0.0000 H       1  UNL1        0.0654
     33 H           6.6592   -1.2706    0.0000 H       1  UNL1        0.0627
     34 H           8.5991    1.8494    0.0000 H       1  UNL1        0.2922
     35 H           5.4641   -0.5806    0.0000 H       1  UNL1        0.0656
     36 H           4.5981    1.1594    0.0000 H       1  UNL1        0.0625
     37 H           2.8660    1.1594    0.0000 H       1  UNL1        0.0623
     38 H           4.2690   -1.2706    0.0000 H       1  UNL1        0.0623
     39 H           1.4631    0.3494    0.0000 H       1  UNL1        0.0618
     40 H           2.8660   -2.0806    0.0000 H       1  UNL1        0.0618
     41 H           1.4631   -1.2706    0.0000 H       1  UNL1        0.0618
@<TRIPOS>BOND
     1     1     4    1
     2     1     7    1
     3     2    11    1
     4     2    34    1
     5     3    15    2
     6     4     5    1
     7     4     8    1
     8     4     9    1
     9     5    10    2
    10     5    24    1
    11     6     7   ar
    12     6    10    1
    13     6    11   ar
    14     7    12   ar
    15     8    25    1
    16     8    29    1
    17     8    30    1
    18     9    26    1
    19     9    27    1
    20     9    28    1
    21    10    31    1
    22    11    13   ar
    23    12    14   ar
    24    12    32    1
    25    13    14   ar
    26    13    15    1
    27    14    33    1
    28    15    16    1
    29    16    17    2
    30    16    35    1
    31    17    18    1
    32    17    36    1
    33    18    19   ar
    34    18    20   ar
    35    19    21   ar
    36    19    37    1
    37    20    22   ar
    38    20    38    1
    39    21    23   ar
    40    21    39    1
    41    22    23   ar
    42    22    40    1
    43    23    41    1
