@<TRIPOS>MOLECULE
IMPHY005005
 43 45 0 0 0
SMALL
GASTEIGER

@<TRIPOS>ATOM
      1 O           6.0290   -0.3017    0.0000 O.2     1  UNL1       -0.4616
      2 O           2.5369   -0.2671    0.0000 O.3     1  UNL1       -0.5062
      3 O           4.2690    2.7329    0.0000 O.3     1  UNL1       -0.5058
      4 O           6.0174    2.7675    0.0000 O.2     1  UNL1       -0.2863
      5 O          10.3914    3.2671    0.0000 O.3     1  UNL1       -0.5068
      6 C           4.2690   -0.2671    0.0000 C.ar    1  UNL1        0.0408
      7 C           5.1350    0.2329    0.0000 C.ar    1  UNL1        0.1489
      8 C           5.1350    1.2329    0.0000 C.ar    1  UNL1        0.1063
      9 C           4.2690   -1.2671    0.0000 C.3     1  UNL1       -0.0023
     10 C           3.4030    0.2329    0.0000 C.ar    1  UNL1        0.1273
     11 C           6.0290    1.7676    0.0000 C.ar    1  UNL1        0.2037
     12 C           6.9350    1.2537    0.0000 C.ar    1  UNL1        0.0644
     13 C           4.2690    1.7329    0.0000 C.ar    1  UNL1        0.1347
     14 C           3.4030    1.2329    0.0000 C.ar    1  UNL1        0.0225
     15 C           3.4030   -1.7671    0.0000 C.2     1  UNL1       -0.0807
     16 C           7.7991    1.7571    0.0000 C.ar    1  UNL1       -0.0110
     17 C           6.9350    0.2121    0.0000 C.ar    1  UNL1        0.1039
     18 C           3.4030   -2.7671    0.0000 C.2     1  UNL1       -0.0793
     19 C           8.6671    1.2604    0.0000 C.ar    1  UNL1       -0.0504
     20 C           7.7953    2.7571    0.0000 C.ar    1  UNL1       -0.0504
     21 C           2.5369   -3.2671    0.0000 C.3     1  UNL1       -0.0440
     22 C           4.2690   -3.2671    0.0000 C.3     1  UNL1       -0.0440
     23 C           9.5312    1.7638    0.0000 C.ar    1  UNL1       -0.0196
     24 C           8.6594    3.2604    0.0000 C.ar    1  UNL1       -0.0196
     25 C           9.5273    2.7637    0.0000 C.ar    1  UNL1        0.1169
     26 H           4.4810   -1.8497    0.0000 H       1  UNL1        0.0358
     27 H           4.8796   -1.1594    0.0000 H       1  UNL1        0.0358
     28 H           2.8660    1.5429    0.0000 H       1  UNL1        0.0691
     29 H           2.8660   -1.4571    0.0000 H       1  UNL1        0.0575
     30 H           7.4708   -0.1000    0.0000 H       1  UNL1        0.1037
     31 H           8.6694    0.6404    0.0000 H       1  UNL1        0.0625
     32 H           7.2571    3.0650    0.0000 H       1  UNL1        0.0625
     33 H           2.0000    0.0429    0.0000 H       1  UNL1        0.2921
     34 H           3.9590   -3.8040    0.0000 H       1  UNL1        0.0274
     35 H           4.8059   -3.5771    0.0000 H       1  UNL1        0.0274
     36 H           4.5790   -2.7301    0.0000 H       1  UNL1        0.0274
     37 H           2.2269   -2.7301    0.0000 H       1  UNL1        0.0274
     38 H           2.0000   -3.5771    0.0000 H       1  UNL1        0.0274
     39 H           2.8469   -3.8040    0.0000 H       1  UNL1        0.0274
     40 H           3.7320    3.0429    0.0000 H       1  UNL1        0.2922
     41 H          10.0693    1.4558    0.0000 H       1  UNL1        0.0654
     42 H           8.6570    3.8804    0.0000 H       1  UNL1        0.0654
     43 H          10.9295    2.9592    0.0000 H       1  UNL1        0.2921
@<TRIPOS>BOND
     1     1     7   ar
     2     1    17   ar
     3     2    10    1
     4     2    33    1
     5     3    13    1
     6     3    40    1
     7     4    11    2
     8     5    25    1
     9     5    43    1
    10     6     7   ar
    11     6     9    1
    12     6    10   ar
    13     7     8   ar
    14     8    11   ar
    15     8    13   ar
    16     9    15    1
    17     9    26    1
    18     9    27    1
    19    10    14   ar
    20    11    12   ar
    21    12    16    1
    22    12    17   ar
    23    13    14   ar
    24    14    28    1
    25    15    18    2
    26    15    29    1
    27    16    19   ar
    28    16    20   ar
    29    17    30    1
    30    18    21    1
    31    18    22    1
    32    19    23   ar
    33    19    31    1
    34    20    24   ar
    35    20    32    1
    36    21    37    1
    37    21    38    1
    38    21    39    1
    39    22    34    1
    40    22    35    1
    41    22    36    1
    42    23    25   ar
    43    23    41    1
    44    24    25   ar
    45    24    42    1
