@<TRIPOS>MOLECULE
IMPHY010813
 127 134 0 0 0
SMALL
GASTEIGER

@<TRIPOS>ATOM
      1 O          11.1496    2.1607    0.0000 O.3     1  UNL1       -0.3874
      2 O           9.4651   -3.2702    0.0000 O.3     1  UNL1       -0.3454
      3 O           8.7608    6.6785    0.0000 O.3     1  UNL1       -0.4571
      4 O           7.7331   -3.2702    0.0000 O.3     1  UNL1       -0.3431
      5 O           9.4651   -5.2702    0.0000 O.3     1  UNL1       -0.3841
      6 O           6.9812    6.7702    0.0000 O.2     1  UNL1       -0.2456
      7 O           7.7331   -6.2702    0.0000 O.3     1  UNL1       -0.3744
      8 O           6.0010   -5.2702    0.0000 O.3     1  UNL1       -0.3402
      9 O           5.1350   -3.7702    0.0000 O.3     1  UNL1       -0.3405
     10 O           4.2690   -6.2702    0.0000 O.3     1  UNL1       -0.3841
     11 O           2.5369   -5.2702    0.0000 O.3     1  UNL1       -0.3864
     12 O           2.5369   -3.2702    0.0000 O.3     1  UNL1       -0.3865
     13 O           5.1350   -1.7702    0.0000 O.3     1  UNL1       -0.3460
     14 O           6.0010   -0.2702    0.0000 O.3     1  UNL1       -0.3405
     15 O           3.4030   -0.7702    0.0000 O.3     1  UNL1       -0.3841
     16 O           3.4030    1.2298    0.0000 O.3     1  UNL1       -0.3864
     17 O           5.1350    2.2298    0.0000 O.3     1  UNL1       -0.3865
     18 O           7.7331    0.7298    0.0000 O.3     1  UNL1       -0.3924
     19 C           9.4929    0.7989    0.0000 C.3     1  UNL1       -0.0290
     20 C          10.3609    1.2956    0.0000 C.3     1  UNL1       -0.0079
     21 C           9.4891   -0.2010    0.0000 C.3     1  UNL1       -0.0259
     22 C          10.1554    2.2682    0.0000 C.3     1  UNL1        0.0782
     23 C           9.1671    2.3751    0.0000 C.3     1  UNL1        0.0185
     24 C           8.7585    1.4689    0.0000 C.3     1  UNL1       -0.0376
     25 C          10.3532   -0.7044    0.0000 C.3     1  UNL1       -0.0330
     26 C          11.2250    0.7923    0.0000 C.3     1  UNL1       -0.0470
     27 C          11.2211   -0.2077    0.0000 C.3     1  UNL1       -0.0493
     28 C          10.7794    3.0946    0.0000 C.3     1  UNL1       -0.0221
     29 C           8.5771   -0.7044    0.0000 C.3     1  UNL1       -0.0448
     30 C           8.7342    3.3157    0.0000 C.2     1  UNL1       -0.0608
     31 C          10.3652   -1.7459    0.0000 C.3     1  UNL1       -0.0232
     32 C           8.6250    0.3023    0.0000 C.3     1  UNL1       -0.0590
     33 C           8.1729    2.4826    0.0000 C.3     1  UNL1       -0.0532
     34 C           9.3389    4.1563    0.0000 C.3     1  UNL1        0.0053
     35 C          10.3683    4.0450    0.0000 C.3     1  UNL1       -0.0400
     36 C           8.5651   -1.7459    0.0000 C.3     1  UNL1       -0.0260
     37 C           9.4651   -2.2702    0.0000 C.3     1  UNL1        0.0621
     38 C           7.7388    3.4117    0.0000 C.2     1  UNL1       -0.0983
     39 C           8.9314    5.0695    0.0000 C.2     1  UNL1       -0.0188
     40 C           9.4306    5.9359    0.0000 C.3     1  UNL1        0.1150
     41 C           8.5991   -3.7702    0.0000 C.3     1  UNL1        0.1881
     42 C           7.9530    5.2766    0.0000 C.2     1  UNL1        0.0255
     43 C           8.5991   -4.7702    0.0000 C.3     1  UNL1        0.1344
     44 C           7.8476    6.2710    0.0000 C.2     1  UNL1        0.3323
     45 C           7.7331   -5.2702    0.0000 C.3     1  UNL1        0.1174
     46 C           6.8671   -3.7702    0.0000 C.3     1  UNL1        0.0877
     47 C           6.8671   -4.7702    0.0000 C.3     1  UNL1        0.1162
     48 C           6.0010   -3.2702    0.0000 C.3     1  UNL1       -0.0360
     49 C           5.1350   -4.7702    0.0000 C.3     1  UNL1        0.1884
     50 C           8.5991   -6.7702    0.0000 C.3     1  UNL1        0.0370
     51 C           4.2690   -5.2702    0.0000 C.3     1  UNL1        0.1341
     52 C           3.4030   -4.7702    0.0000 C.3     1  UNL1        0.1141
     53 C           4.2690   -3.2702    0.0000 C.3     1  UNL1        0.1134
     54 C           3.4030   -3.7702    0.0000 C.3     1  UNL1        0.1119
     55 C           4.2690   -2.2702    0.0000 C.3     1  UNL1        0.0796
     56 C           5.1350   -0.7702    0.0000 C.3     1  UNL1        0.1880
     57 C           4.2690   -0.2702    0.0000 C.3     1  UNL1        0.1341
     58 C           4.2690    0.7298    0.0000 C.3     1  UNL1        0.1141
     59 C           6.0010    0.7298    0.0000 C.3     1  UNL1        0.1130
     60 C           5.1350    1.2298    0.0000 C.3     1  UNL1        0.1119
     61 C           6.8671    1.2298    0.0000 C.3     1  UNL1        0.0730
     62 H          10.2274    0.3711    0.0000 H       1  UNL1        0.0310
     63 H          11.0498    1.7935    0.0000 H       1  UNL1        0.0332
     64 H           8.2232    1.7817    0.0000 H       1  UNL1        0.0277
     65 H           8.3911    0.9694    0.0000 H       1  UNL1        0.0277
     66 H          11.0909   -1.1265    0.0000 H       1  UNL1        0.0307
     67 H          11.8351    0.6823    0.0000 H       1  UNL1        0.0269
     68 H          11.4393    1.3741    0.0000 H       1  UNL1        0.0269
     69 H          11.4309   -0.7911    0.0000 H       1  UNL1        0.0268
     70 H          11.8321   -0.1024    0.0000 H       1  UNL1        0.0268
     71 H          11.2029    2.6418    0.0000 H       1  UNL1        0.0293
     72 H          11.2979    3.4344    0.0000 H       1  UNL1        0.0293
     73 H           8.3748   -0.1183    0.0000 H       1  UNL1        0.0271
     74 H           7.9651   -0.8034    0.0000 H       1  UNL1        0.0271
     75 H          10.5810   -2.3272    0.0000 H       1  UNL1        0.0293
     76 H          10.9748   -1.6328    0.0000 H       1  UNL1        0.0293
     77 H           8.9370    0.8380    0.0000 H       1  UNL1        0.0235
     78 H           8.0892    0.6144    0.0000 H       1  UNL1        0.0235
     79 H           8.3129   -0.2334    0.0000 H       1  UNL1        0.0235
     80 H           8.2395    3.0990    0.0000 H       1  UNL1        0.0239
     81 H           7.5565    2.5492    0.0000 H       1  UNL1        0.0239
     82 H           8.1062    1.8662    0.0000 H       1  UNL1        0.0239
     83 H           8.7221    4.2194    0.0000 H       1  UNL1        0.0392
     84 H          10.9711    4.1901    0.0000 H       1  UNL1        0.0275
     85 H          10.3285    4.6637    0.0000 H       1  UNL1        0.0275
     86 H           7.9555   -1.6328    0.0000 H       1  UNL1        0.0290
     87 H           8.3493   -2.3272    0.0000 H       1  UNL1        0.0290
     88 H          10.0027   -2.5792    0.0000 H       1  UNL1        0.0597
     89 H          11.5155    2.6612    0.0000 H       1  UNL1        0.2102
     90 H           7.4818    3.9759    0.0000 H       1  UNL1        0.0535
     91 H           7.3787    2.9070    0.0000 H       1  UNL1        0.0535
     92 H           9.9325    5.5720    0.0000 H       1  UNL1        0.0746
     93 H           9.8451    6.3970    0.0000 H       1  UNL1        0.0746
     94 H           8.5991   -3.1502    0.0000 H       1  UNL1        0.0937
     95 H           7.4926    4.8613    0.0000 H       1  UNL1        0.0690
     96 H           8.5991   -5.3902    0.0000 H       1  UNL1        0.0671
     97 H           7.1962   -5.5802    0.0000 H       1  UNL1        0.0650
     98 H           6.8671   -3.1502    0.0000 H       1  UNL1        0.0621
     99 H           6.3301   -4.4602    0.0000 H       1  UNL1        0.0650
    100 H          10.0021   -4.9602    0.0000 H       1  UNL1        0.2101
    101 H           6.3110   -2.7333    0.0000 H       1  UNL1        0.0255
    102 H           5.4641   -2.9602    0.0000 H       1  UNL1        0.0255
    103 H           5.6910   -3.8072    0.0000 H       1  UNL1        0.0255
    104 H           5.1350   -5.3902    0.0000 H       1  UNL1        0.0938
    105 H           8.2891   -7.3072    0.0000 H       1  UNL1        0.0524
    106 H           9.1360   -7.0802    0.0000 H       1  UNL1        0.0524
    107 H           8.9091   -6.2333    0.0000 H       1  UNL1        0.0524
    108 H           3.7320   -5.5802    0.0000 H       1  UNL1        0.0671
    109 H           2.8660   -4.4602    0.0000 H       1  UNL1        0.0648
    110 H           4.8059   -2.9602    0.0000 H       1  UNL1        0.0647
    111 H           3.4030   -3.1502    0.0000 H       1  UNL1        0.0647
    112 H           3.7320   -6.5802    0.0000 H       1  UNL1        0.2101
    113 H           4.0569   -1.6876    0.0000 H       1  UNL1        0.0587
    114 H           3.6584   -2.3779    0.0000 H       1  UNL1        0.0587
    115 H           2.0000   -4.9602    0.0000 H       1  UNL1        0.2100
    116 H           2.5369   -2.6502    0.0000 H       1  UNL1        0.2100
    117 H           4.5981   -1.0802    0.0000 H       1  UNL1        0.0937
    118 H           3.7320    0.0398    0.0000 H       1  UNL1        0.0671
    119 H           4.2690    1.3498    0.0000 H       1  UNL1        0.0648
    120 H           6.5380    0.4198    0.0000 H       1  UNL1        0.0647
    121 H           5.6720    1.5398    0.0000 H       1  UNL1        0.0647
    122 H           7.2656    1.7047    0.0000 H       1  UNL1        0.0584
    123 H           6.4685    1.7047    0.0000 H       1  UNL1        0.0584
    124 H           2.8660   -0.4602    0.0000 H       1  UNL1        0.2101
    125 H           3.4030    1.8498    0.0000 H       1  UNL1        0.2100
    126 H           5.6720    2.5398    0.0000 H       1  UNL1        0.2100
    127 H           8.2700    1.0398    0.0000 H       1  UNL1        0.2095
@<TRIPOS>BOND
     1    22     1    1
     2     1    89    1
     3    37     2    1
     4    41     2    1
     5     3    40    1
     6     3    44    1
     7     4    41    1
     8     4    46    1
     9    43     5    1
    10     5   100    1
    11     6    44    2
    12    45     7    1
    13     7    50    1
    14    47     8    1
    15    49     8    1
    16     9    49    1
    17     9    53    1
    18    51    10    1
    19    10   112    1
    20    52    11    1
    21    11   115    1
    22    54    12    1
    23    12   116    1
    24    13    55    1
    25    56    13    1
    26    14    56    1
    27    14    59    1
    28    57    15    1
    29    15   124    1
    30    58    16    1
    31    16   125    1
    32    60    17    1
    33    17   126    1
    34    18    61    1
    35    18   127    1
    36    19    20    1
    37    19    21    1
    38    19    24    1
    39    19    62    1
    40    20    22    1
    41    20    26    1
    42    20    63    1
    43    21    25    1
    44    21    29    1
    45    21    32    1
    46    22    23    1
    47    22    28    1
    48    23    24    1
    49    23    30    1
    50    23    33    1
    51    24    64    1
    52    24    65    1
    53    25    27    1
    54    25    31    1
    55    25    66    1
    56    26    27    1
    57    26    67    1
    58    26    68    1
    59    27    69    1
    60    27    70    1
    61    28    35    1
    62    28    71    1
    63    28    72    1
    64    29    36    1
    65    29    73    1
    66    29    74    1
    67    30    34    1
    68    30    38    2
    69    31    37    1
    70    31    75    1
    71    31    76    1
    72    32    77    1
    73    32    78    1
    74    32    79    1
    75    33    80    1
    76    33    81    1
    77    33    82    1
    78    34    35    1
    79    34    39    1
    80    34    83    1
    81    35    84    1
    82    35    85    1
    83    36    37    1
    84    36    86    1
    85    36    87    1
    86    37    88    1
    87    38    90    1
    88    38    91    1
    89    39    40    1
    90    39    42    2
    91    40    92    1
    92    40    93    1
    93    41    43    1
    94    41    94    1
    95    42    44    1
    96    42    95    1
    97    43    45    1
    98    43    96    1
    99    45    47    1
   100    45    97    1
   101    46    47    1
   102    46    48    1
   103    46    98    1
   104    47    99    1
   105    48   101    1
   106    48   102    1
   107    48   103    1
   108    49    51    1
   109    49   104    1
   110    50   105    1
   111    50   106    1
   112    50   107    1
   113    51    52    1
   114    51   108    1
   115    52    54    1
   116    52   109    1
   117    53    54    1
   118    53    55    1
   119    53   110    1
   120    54   111    1
   121    55   113    1
   122    55   114    1
   123    56    57    1
   124    56   117    1
   125    57    58    1
   126    57   118    1
   127    58    60    1
   128    58   119    1
   129    59    60    1
   130    59    61    1
   131    59   120    1
   132    60   121    1
   133    61   122    1
   134    61   123    1
