@<TRIPOS>MOLECULE
IMPHY011136
 140 146 0 0 0
SMALL
GASTEIGER

@<TRIPOS>ATOM
      1 O          18.0789    3.9704    0.0000 O.3     1  UNL1       -0.3607
      2 O          18.7454    4.7573    0.0000 O.3     1  UNL1       -0.3848
      3 O          20.0394    0.8993    0.0000 O.2     1  UNL1       -0.2920
      4 O          14.1244   -1.8450    0.0000 O.3     1  UNL1       -0.4574
      5 O          12.3923   -1.8450    0.0000 O.2     1  UNL1       -0.2452
      6 O          12.3923   -4.8450    0.0000 O.3     1  UNL1       -0.3438
      7 O          10.6603   -4.8450    0.0000 O.3     1  UNL1       -0.3394
      8 O          12.3923   -6.8450    0.0000 O.3     1  UNL1       -0.3841
      9 O          10.6603   -7.8450    0.0000 O.3     1  UNL1       -0.3864
     10 O           8.9282   -6.8450    0.0000 O.3     1  UNL1       -0.3864
     11 O           8.9282   -3.8450    0.0000 O.3     1  UNL1       -0.4619
     12 O           7.1962   -3.8450    0.0000 O.2     1  UNL1       -0.2509
     13 C          17.0726    1.5229    0.0000 C.3     1  UNL1       -0.0314
     14 C          18.3968    3.0218    0.0000 C.3     1  UNL1        0.1376
     15 C          18.0527    1.3242    0.0000 C.3     1  UNL1       -0.0226
     16 C          18.7148    2.0737    0.0000 C.3     1  UNL1        0.0673
     17 C          16.3710    0.7530    0.0000 C.3     1  UNL1       -0.0322
     18 C          16.6946   -0.2371    0.0000 C.3     1  UNL1       -0.0258
     19 C          17.4168    3.2204    0.0000 C.3     1  UNL1        0.0925
     20 C          16.7547    2.4710    0.0000 C.3     1  UNL1       -0.0203
     21 C          18.3991    0.3419    0.0000 C.3     1  UNL1       -0.0484
     22 C          15.8564   -0.8450    0.0000 C.3     1  UNL1       -0.0294
     23 C          17.7155   -0.4440    0.0000 C.3     1  UNL1       -0.0468
     24 C          15.3356    0.7485    0.0000 C.3     1  UNL1       -0.0492
     25 C          19.0744    3.8129    0.0000 C.3     1  UNL1        0.1060
     26 C          15.0182   -0.2371    0.0000 C.3     1  UNL1       -0.0491
     27 C          19.0328    1.1256    0.0000 C.3     1  UNL1       -0.0494
     28 C          19.7324    1.8510    0.0000 C.2     1  UNL1        0.1649
     29 C          17.0053   -1.1876    0.0000 C.3     1  UNL1       -0.0590
     30 C          15.8564   -1.8450    0.0000 C.3     1  UNL1       -0.0030
     31 C          20.0968    3.6139    0.0000 C.2     1  UNL1       -0.0497
     32 C          20.4280    2.6263    0.0000 C.2     1  UNL1       -0.0200
     33 C          14.9904   -2.3450    0.0000 C.3     1  UNL1        0.1099
     34 C          16.7224   -2.3450    0.0000 C.3     1  UNL1       -0.0588
     35 C          14.9904   -3.3450    0.0000 C.3     1  UNL1        0.0064
     36 C          14.1244   -3.8450    0.0000 C.2     1  UNL1       -0.0570
     37 C          13.2583   -2.3450    0.0000 C.2     1  UNL1        0.3376
     38 C          13.2583   -3.3450    0.0000 C.2     1  UNL1        0.0611
     39 C          14.1244   -4.8450    0.0000 C.3     1  UNL1       -0.0428
     40 C          12.3923   -3.8450    0.0000 C.3     1  UNL1        0.0825
     41 C          11.5263   -5.3450    0.0000 C.3     1  UNL1        0.1883
     42 C          11.5263   -6.3450    0.0000 C.3     1  UNL1        0.1341
     43 C          10.6603   -6.8450    0.0000 C.3     1  UNL1        0.1141
     44 C           9.7942   -5.3450    0.0000 C.3     1  UNL1        0.1240
     45 C           9.7942   -6.3450    0.0000 C.3     1  UNL1        0.1129
     46 C           8.9282   -4.8450    0.0000 C.3     1  UNL1        0.1211
     47 C           8.0622   -3.3450    0.0000 C.2     1  UNL1        0.3072
     48 C           8.0622   -2.3450    0.0000 C.3     1  UNL1        0.0449
     49 C           7.1962   -1.8450    0.0000 C.3     1  UNL1       -0.0430
     50 C           7.1962   -0.8450    0.0000 C.3     1  UNL1       -0.0526
     51 C           6.3301   -0.3450    0.0000 C.3     1  UNL1       -0.0530
     52 C           6.3301    0.6550    0.0000 C.3     1  UNL1       -0.0531
     53 C           5.4641    1.1550    0.0000 C.3     1  UNL1       -0.0531
     54 C           5.4641    2.1550    0.0000 C.3     1  UNL1       -0.0531
     55 C           4.5981    2.6550    0.0000 C.3     1  UNL1       -0.0531
     56 C           4.5981    3.6550    0.0000 C.3     1  UNL1       -0.0531
     57 C           3.7320    4.1550    0.0000 C.3     1  UNL1       -0.0531
     58 C           3.7320    5.1550    0.0000 C.3     1  UNL1       -0.0531
     59 C           2.8660    5.6550    0.0000 C.3     1  UNL1       -0.0531
     60 C           2.8660    6.6550    0.0000 C.3     1  UNL1       -0.0533
     61 C           2.0000    7.1550    0.0000 C.3     1  UNL1       -0.0559
     62 C           2.0000    8.1550    0.0000 C.3     1  UNL1       -0.0653
     63 H          17.4831    1.9875    0.0000 H       1  UNL1        0.0307
     64 H          18.6613    1.2057    0.0000 H       1  UNL1        0.0314
     65 H          16.1193    1.3196    0.0000 H       1  UNL1        0.0309
     66 H          16.9521    3.6309    0.0000 H       1  UNL1        0.0626
     67 H          16.3684    2.9559    0.0000 H       1  UNL1        0.0294
     68 H          16.2100    2.1748    0.0000 H       1  UNL1        0.0294
     69 H          18.7904   -0.1391    0.0000 H       1  UNL1        0.0268
     70 H          18.9399    0.6451    0.0000 H       1  UNL1        0.0268
     71 H          15.3041   -1.1267    0.0000 H       1  UNL1        0.0310
     72 H          17.4902   -1.0216    0.0000 H       1  UNL1        0.0271
     73 H          18.2460   -0.7649    0.0000 H       1  UNL1        0.0271
     74 H          15.3981    1.3654    0.0000 H       1  UNL1        0.0268
     75 H          14.7287    0.8755    0.0000 H       1  UNL1        0.0268
     76 H          19.4803    4.2815    0.0000 H       1  UNL1        0.0668
     77 H          14.4513    0.0139    0.0000 H       1  UNL1        0.0268
     78 H          14.7089   -0.7745    0.0000 H       1  UNL1        0.0268
     79 H          18.4450    0.9284    0.0000 H       1  UNL1        0.0240
     80 H          19.2299    0.5377    0.0000 H       1  UNL1        0.0240
     81 H          19.6206    1.3227    0.0000 H       1  UNL1        0.0240
     82 H          16.4160   -1.3802    0.0000 H       1  UNL1        0.0235
     83 H          17.1979   -1.7769    0.0000 H       1  UNL1        0.0235
     84 H          17.5946   -0.9950    0.0000 H       1  UNL1        0.0235
     85 H          16.3933   -1.5350    0.0000 H       1  UNL1        0.0337
     86 H          20.5055    4.0801    0.0000 H       1  UNL1        0.0599
     87 H          21.0352    2.5008    0.0000 H       1  UNL1        0.0650
     88 H          14.9904   -1.7250    0.0000 H       1  UNL1        0.0740
     89 H          19.1505    5.2266    0.0000 H       1  UNL1        0.2103
     90 H          16.4124   -2.8819    0.0000 H       1  UNL1        0.0234
     91 H          17.2594   -2.6550    0.0000 H       1  UNL1        0.0234
     92 H          17.0324   -1.8081    0.0000 H       1  UNL1        0.0234
     93 H          15.2024   -3.9276    0.0000 H       1  UNL1        0.0346
     94 H          15.6010   -3.2373    0.0000 H       1  UNL1        0.0346
     95 H          13.5044   -4.8450    0.0000 H       1  UNL1        0.0275
     96 H          14.1244   -5.4650    0.0000 H       1  UNL1        0.0275
     97 H          14.7444   -4.8450    0.0000 H       1  UNL1        0.0275
     98 H          12.1803   -3.2624    0.0000 H       1  UNL1        0.0613
     99 H          11.7817   -3.9527    0.0000 H       1  UNL1        0.0613
    100 H          12.0632   -5.6550    0.0000 H       1  UNL1        0.0938
    101 H          11.5263   -6.9650    0.0000 H       1  UNL1        0.0671
    102 H          11.1972   -7.1550    0.0000 H       1  UNL1        0.0648
    103 H           9.7942   -4.7250    0.0000 H       1  UNL1        0.0658
    104 H           9.7942   -6.9650    0.0000 H       1  UNL1        0.0647
    105 H          12.9292   -6.5350    0.0000 H       1  UNL1        0.2101
    106 H           8.3176   -4.7373    0.0000 H       1  UNL1        0.0724
    107 H           8.7162   -5.4276    0.0000 H       1  UNL1        0.0724
    108 H          10.1233   -8.1550    0.0000 H       1  UNL1        0.2100
    109 H           8.3913   -6.5350    0.0000 H       1  UNL1        0.2100
    110 H           8.6728   -2.4527    0.0000 H       1  UNL1        0.0377
    111 H           8.2742   -1.7624    0.0000 H       1  UNL1        0.0377
    112 H           6.5856   -1.7373    0.0000 H       1  UNL1        0.0270
    113 H           6.9841   -2.4276    0.0000 H       1  UNL1        0.0270
    114 H           7.8067   -0.9527    0.0000 H       1  UNL1        0.0265
    115 H           7.4082   -0.2624    0.0000 H       1  UNL1        0.0265
    116 H           5.7196   -0.2373    0.0000 H       1  UNL1        0.0265
    117 H           6.1181   -0.9276    0.0000 H       1  UNL1        0.0265
    118 H           6.9407    0.5473    0.0000 H       1  UNL1        0.0265
    119 H           6.5422    1.2376    0.0000 H       1  UNL1        0.0265
    120 H           4.8535    1.2627    0.0000 H       1  UNL1        0.0265
    121 H           5.2520    0.5724    0.0000 H       1  UNL1        0.0265
    122 H           6.0747    2.0473    0.0000 H       1  UNL1        0.0265
    123 H           5.6762    2.7376    0.0000 H       1  UNL1        0.0265
    124 H           3.9875    2.7627    0.0000 H       1  UNL1        0.0265
    125 H           4.3860    2.0724    0.0000 H       1  UNL1        0.0265
    126 H           5.2087    3.5473    0.0000 H       1  UNL1        0.0265
    127 H           4.8101    4.2376    0.0000 H       1  UNL1        0.0265
    128 H           3.1215    4.2627    0.0000 H       1  UNL1        0.0265
    129 H           3.5200    3.5724    0.0000 H       1  UNL1        0.0265
    130 H           4.3426    5.0473    0.0000 H       1  UNL1        0.0265
    131 H           3.9441    5.7376    0.0000 H       1  UNL1        0.0265
    132 H           2.2554    5.7627    0.0000 H       1  UNL1        0.0265
    133 H           2.6540    5.0724    0.0000 H       1  UNL1        0.0265
    134 H           3.4766    6.5473    0.0000 H       1  UNL1        0.0265
    135 H           3.0781    7.2376    0.0000 H       1  UNL1        0.0265
    136 H           1.3894    7.2627    0.0000 H       1  UNL1        0.0263
    137 H           1.7880    6.5724    0.0000 H       1  UNL1        0.0263
    138 H           2.6200    8.1550    0.0000 H       1  UNL1        0.0230
    139 H           2.0000    8.7750    0.0000 H       1  UNL1        0.0230
    140 H           1.3800    8.1550    0.0000 H       1  UNL1        0.0230
@<TRIPOS>BOND
     1     1    14    1
     2     1    19    1
     3     2    25    1
     4     2    89    1
     5     3    28    2
     6     4    33    1
     7     4    37    1
     8     5    37    2
     9     6    40    1
    10     6    41    1
    11     7    41    1
    12     7    44    1
    13     8    42    1
    14     8   105    1
    15     9    43    1
    16     9   108    1
    17    10    45    1
    18    10   109    1
    19    11    46    1
    20    11    47    1
    21    12    47    2
    22    13    15    1
    23    13    17    1
    24    13    20    1
    25    13    63    1
    26    14    16    1
    27    14    19    1
    28    14    25    1
    29    15    16    1
    30    15    21    1
    31    15    64    1
    32    16    27    1
    33    16    28    1
    34    17    18    1
    35    17    24    1
    36    17    65    1
    37    18    22    1
    38    18    23    1
    39    18    29    1
    40    19    20    1
    41    19    66    1
    42    20    67    1
    43    20    68    1
    44    21    23    1
    45    21    69    1
    46    21    70    1
    47    22    26    1
    48    22    30    1
    49    22    71    1
    50    23    72    1
    51    23    73    1
    52    24    26    1
    53    24    74    1
    54    24    75    1
    55    25    31    1
    56    25    76    1
    57    26    77    1
    58    26    78    1
    59    27    79    1
    60    27    80    1
    61    27    81    1
    62    28    32    1
    63    29    82    1
    64    29    83    1
    65    29    84    1
    66    30    33    1
    67    30    34    1
    68    30    85    1
    69    31    32    2
    70    31    86    1
    71    32    87    1
    72    33    35    1
    73    33    88    1
    74    34    90    1
    75    34    91    1
    76    34    92    1
    77    35    36    1
    78    35    93    1
    79    35    94    1
    80    36    38    2
    81    36    39    1
    82    37    38    1
    83    38    40    1
    84    39    95    1
    85    39    96    1
    86    39    97    1
    87    40    98    1
    88    40    99    1
    89    41    42    1
    90    41   100    1
    91    42    43    1
    92    42   101    1
    93    43    45    1
    94    43   102    1
    95    44    45    1
    96    44    46    1
    97    44   103    1
    98    45   104    1
    99    46   106    1
   100    46   107    1
   101    47    48    1
   102    48    49    1
   103    48   110    1
   104    48   111    1
   105    49    50    1
   106    49   112    1
   107    49   113    1
   108    50    51    1
   109    50   114    1
   110    50   115    1
   111    51    52    1
   112    51   116    1
   113    51   117    1
   114    52    53    1
   115    52   118    1
   116    52   119    1
   117    53    54    1
   118    53   120    1
   119    53   121    1
   120    54    55    1
   121    54   122    1
   122    54   123    1
   123    55    56    1
   124    55   124    1
   125    55   125    1
   126    56    57    1
   127    56   126    1
   128    56   127    1
   129    57    58    1
   130    57   128    1
   131    57   129    1
   132    58    59    1
   133    58   130    1
   134    58   131    1
   135    59    60    1
   136    59   132    1
   137    59   133    1
   138    60    61    1
   139    60   134    1
   140    60   135    1
   141    61    62    1
   142    61   136    1
   143    61   137    1
   144    62   138    1
   145    62   139    1
   146    62   140    1
