@<TRIPOS>MOLECULE
IMPHY000902
 63 66 0 0 0
SMALL
GASTEIGER

@<TRIPOS>ATOM
      1 O           8.1223   -2.0159    0.0000 O.3     1  UNL1       -0.3477
      2 O           5.5103    1.5125    0.0000 O.3     1  UNL1       -0.3888
      3 O           8.6855    1.8935    0.0000 O.3     1  UNL1       -0.3859
      4 O           7.2762    2.5503    0.0000 O.3     1  UNL1       -0.3744
      5 O           9.8438   -2.0487    0.0000 O.3     1  UNL1       -0.3670
      6 O           4.6497    1.0156    0.0000 O.2     1  UNL1       -0.2882
      7 O           2.8680    0.0052    0.0000 O.2     1  UNL1       -0.4919
      8 C           7.2641   -0.5190    0.0000 C.3     1  UNL1        0.0061
      9 C           6.3981   -0.0190    0.0000 C.3     1  UNL1        0.0084
     10 C           5.5320   -0.5190    0.0000 C.3     1  UNL1        0.0431
     11 C           8.1741   -0.0122    0.0000 C.3     1  UNL1        0.0028
     12 C           7.2641   -1.5190    0.0000 C.3     1  UNL1        0.0680
     13 C           5.5320   -1.5190    0.0000 C.3     1  UNL1       -0.0197
     14 C           6.3820    1.0225    0.0000 C.3     1  UNL1        0.0883
     15 C           8.1821    1.0294    0.0000 C.3     1  UNL1        0.0952
     16 C           6.3981   -2.0190    0.0000 C.3     1  UNL1       -0.0217
     17 C           7.2800    1.5503    0.0000 C.3     1  UNL1        0.1130
     18 C           9.0134   -0.5404    0.0000 C.3     1  UNL1        0.0043
     19 C           7.2641    0.4810    0.0000 C.3     1  UNL1       -0.0565
     20 C           4.6381   -2.0537    0.0000 C.3     1  UNL1       -0.0181
     21 C           5.5320    0.4810    0.0000 C.3     1  UNL1       -0.0517
     22 C           4.6381    0.0157    0.0000 C.2     1  UNL1        0.2034
     23 C           8.9878   -1.5318    0.0000 C.3     1  UNL1        0.1569
     24 C           9.1821    1.0256    0.0000 C.3     1  UNL1       -0.0333
     25 C           3.7320   -1.5398    0.0000 C.2     1  UNL1       -0.0356
     26 C           3.7320   -0.4982    0.0000 C.2     1  UNL1        0.1592
     27 C           4.6497   -3.0536    0.0000 C.3     1  UNL1       -0.0585
     28 C           8.1403    3.0536    0.0000 C.3     1  UNL1        0.0370
     29 C           2.0000   -0.4915    0.0000 C.3     1  UNL1        0.0789
     30 H           5.6587    0.4003    0.0000 H       1  UNL1        0.0342
     31 H           8.9198    0.3959    0.0000 H       1  UNL1        0.0337
     32 H           7.2636   -2.3690    0.0000 H       1  UNL1        0.0603
     33 H           5.5386   -2.3690    0.0000 H       1  UNL1        0.0317
     34 H           5.8493    0.7053    0.0000 H       1  UNL1        0.0623
     35 H           5.9995   -2.4939    0.0000 H       1  UNL1        0.0293
     36 H           6.7966   -2.4939    0.0000 H       1  UNL1        0.0293
     37 H           6.7413    1.8572    0.0000 H       1  UNL1        0.0651
     38 H           9.6205   -0.6663    0.0000 H       1  UNL1        0.0318
     39 H           9.2452    0.0347    0.0000 H       1  UNL1        0.0318
     40 H           7.8841    0.4810    0.0000 H       1  UNL1        0.0236
     41 H           7.2641    1.1010    0.0000 H       1  UNL1        0.0236
     42 H           6.6441    0.4810    0.0000 H       1  UNL1        0.0236
     43 H           4.1042   -2.3688    0.0000 H       1  UNL1        0.0344
     44 H           6.1520    0.4810    0.0000 H       1  UNL1        0.0239
     45 H           5.5320    1.1010    0.0000 H       1  UNL1        0.0239
     46 H           4.9120    0.4810    0.0000 H       1  UNL1        0.0239
     47 H           8.9737   -2.3816    0.0000 H       1  UNL1        0.0907
     48 H           9.1797    0.4056    0.0000 H       1  UNL1        0.0258
     49 H           9.8021    1.0232    0.0000 H       1  UNL1        0.0258
     50 H           9.1845    1.6456    0.0000 H       1  UNL1        0.0258
     51 H           3.1963   -1.8519    0.0000 H       1  UNL1        0.0612
     52 H           5.5031    2.1324    0.0000 H       1  UNL1        0.2099
     53 H           9.3055    1.8912    0.0000 H       1  UNL1        0.2103
     54 H           4.0297   -3.0608    0.0000 H       1  UNL1        0.0235
     55 H           4.6568   -3.6736    0.0000 H       1  UNL1        0.0235
     56 H           5.2696   -3.0464    0.0000 H       1  UNL1        0.0235
     57 H           9.8316   -2.6686    0.0000 H       1  UNL1        0.2125
     58 H           8.4523    2.5178    0.0000 H       1  UNL1        0.0524
     59 H           8.6760    3.3657    0.0000 H       1  UNL1        0.0524
     60 H           7.8282    3.5893    0.0000 H       1  UNL1        0.0524
     61 H           1.6921    0.0466    0.0000 H       1  UNL1        0.0660
     62 H           1.4619   -0.7994    0.0000 H       1  UNL1        0.0660
     63 H           2.3079   -1.0296    0.0000 H       1  UNL1        0.0660
@<TRIPOS>BOND
     1     1    12    1
     2     1    23    1
     3    14     2    1
     4     2    52    1
     5    15     3    1
     6     3    53    1
     7    17     4    1
     8     4    28    1
     9     5    23    1
    10     5    57    1
    11     6    22    2
    12     7    26    1
    13     7    29    1
    14     8     9    1
    15     8    11    1
    16     8    12    1
    17     8    19    1
    18     9    10    1
    19     9    14    1
    20     9    30    1
    21    10    13    1
    22    10    21    1
    23    10    22    1
    24    11    15    1
    25    11    18    1
    26    11    31    1
    27    12    16    1
    28    12    32    1
    29    13    16    1
    30    13    20    1
    31    13    33    1
    32    14    17    1
    33    14    34    1
    34    15    17    1
    35    15    24    1
    36    16    35    1
    37    16    36    1
    38    17    37    1
    39    18    23    1
    40    18    38    1
    41    18    39    1
    42    19    40    1
    43    19    41    1
    44    19    42    1
    45    20    25    1
    46    20    27    1
    47    20    43    1
    48    21    44    1
    49    21    45    1
    50    21    46    1
    51    22    26    1
    52    23    47    1
    53    24    48    1
    54    24    49    1
    55    24    50    1
    56    25    26    2
    57    25    51    1
    58    27    54    1
    59    27    55    1
    60    27    56    1
    61    28    58    1
    62    28    59    1
    63    28    60    1
    64    29    61    1
    65    29    62    1
    66    29    63    1
