@<TRIPOS>MOLECULE
IMPHY001162
 86 92 0 0 0
SMALL
GASTEIGER

@<TRIPOS>ATOM
      1 O           2.9269   -2.2805    0.0000 O.3     1  UNL1       -0.3730
      2 O           4.9852   -3.6064    0.0000 O.3     1  UNL1       -0.3656
      3 O           5.6638    0.8969    0.0000 O.3     1  UNL1       -0.4576
      4 O           2.1240    0.9105    0.0000 O.3     1  UNL1       -0.3910
      5 O           8.2401   -0.6346    0.0000 O.3     1  UNL1       -0.4679
      6 O           7.3740   -2.1346    0.0000 O.2     1  UNL1       -0.2509
      7 O           4.8152    2.4068    0.0000 O.2     1  UNL1       -0.2456
      8 O          10.0874   -4.4534    0.0000 O.2     1  UNL1       -0.4707
      9 C           4.7760   -0.6346    0.0000 C.3     1  UNL1        0.0152
     10 C           3.9099   -1.1346    0.0000 C.3     1  UNL1        0.0066
     11 C           5.6420   -2.1346    0.0000 C.3     1  UNL1        0.0242
     12 C           5.6420   -1.1346    0.0000 C.3     1  UNL1       -0.0102
     13 C           2.9999   -0.6277    0.0000 C.3     1  UNL1        0.0232
     14 C           3.9099   -2.1346    0.0000 C.3     1  UNL1        0.0897
     15 C           4.7760   -2.6346    0.0000 C.3     1  UNL1        0.0952
     16 C           4.7920    0.4069    0.0000 C.3     1  UNL1        0.1117
     17 C           2.9919    0.4139    0.0000 C.3     1  UNL1        0.0664
     18 C           6.3790   -2.8016    0.0000 C.2     1  UNL1       -0.0329
     19 C           2.4131   -1.4298    0.0000 C.3     1  UNL1        0.0562
     20 C           3.8940    0.9347    0.0000 C.3     1  UNL1        0.0116
     21 C           5.9739   -3.7094    0.0000 C.3     1  UNL1        0.0819
     22 C           5.6420   -0.1346    0.0000 C.3     1  UNL1       -0.0555
     23 C           6.5080   -0.6346    0.0000 C.3     1  UNL1        0.0492
     24 C           6.5080   -1.6346    0.0000 C.3     1  UNL1       -0.0530
     25 C           2.0000   -0.6393    0.0000 C.3     1  UNL1       -0.0547
     26 C           7.3614   -2.9084    0.0000 C.2     1  UNL1       -0.0628
     27 C           6.7094   -4.3694    0.0000 C.3     1  UNL1       -0.0121
     28 C           7.5652   -3.8753    0.0000 C.3     1  UNL1        0.0109
     29 C           7.3740   -1.1346    0.0000 C.2     1  UNL1        0.3071
     30 C           8.0325   -2.1669    0.0000 C.3     1  UNL1       -0.0429
     31 C           8.4784   -4.2828    0.0000 C.ar    1  UNL1       -0.0025
     32 C           5.6753    1.8968    0.0000 C.2     1  UNL1        0.3322
     33 C           8.6855   -5.2612    0.0000 C.ar    1  UNL1       -0.0202
     34 C           9.3448   -3.7836    0.0000 C.ar    1  UNL1        0.0954
     35 C           6.5471    2.3868    0.0000 C.2     1  UNL1        0.0231
     36 C           9.6799   -5.3666    0.0000 C.ar    1  UNL1        0.0920
     37 C           9.1061   -1.1346    0.0000 C.3     1  UNL1        0.0817
     38 C           6.5586    3.3867    0.0000 C.2     1  UNL1       -0.0478
     39 C           7.4304    3.8767    0.0000 C.ar    1  UNL1       -0.0248
     40 C           8.2906    3.3667    0.0000 C.ar    1  UNL1       -0.0546
     41 C           7.4420    4.8766    0.0000 C.ar    1  UNL1       -0.0546
     42 C           9.1623    3.8566    0.0000 C.ar    1  UNL1       -0.0612
     43 C           8.3137    5.3666    0.0000 C.ar    1  UNL1       -0.0612
     44 C           9.1739    4.8566    0.0000 C.ar    1  UNL1       -0.0617
     45 H           3.9099   -0.2846    0.0000 H       1  UNL1        0.0340
     46 H           6.1789   -1.4446    0.0000 H       1  UNL1        0.0322
     47 H           3.7510   -2.9696    0.0000 H       1  UNL1        0.0625
     48 H           4.0889   -3.1351    0.0000 H       1  UNL1        0.0631
     49 H           4.7980    1.0269    0.0000 H       1  UNL1        0.0740
     50 H           2.4568    0.1008    0.0000 H       1  UNL1        0.0601
     51 H           1.9653   -1.0011    0.0000 H       1  UNL1        0.0566
     52 H           1.9292   -1.8174    0.0000 H       1  UNL1        0.0566
     53 H           4.2950    1.4076    0.0000 H       1  UNL1        0.0326
     54 H           3.4967    1.4107    0.0000 H       1  UNL1        0.0326
     55 H           5.6292   -4.4864    0.0000 H       1  UNL1        0.0644
     56 H           5.9520   -0.6715    0.0000 H       1  UNL1        0.0236
     57 H           6.1789    0.1754    0.0000 H       1  UNL1        0.0236
     58 H           5.3320    0.4024    0.0000 H       1  UNL1        0.0236
     59 H           6.9065   -0.1596    0.0000 H       1  UNL1        0.0381
     60 H           6.1095   -0.1596    0.0000 H       1  UNL1        0.0381
     61 H           6.8180   -2.1715    0.0000 H       1  UNL1        0.0239
     62 H           7.0450   -1.3246    0.0000 H       1  UNL1        0.0239
     63 H           6.1980   -1.0976    0.0000 H       1  UNL1        0.0239
     64 H           1.9928   -0.0193    0.0000 H       1  UNL1        0.0237
     65 H           1.3800   -0.6464    0.0000 H       1  UNL1        0.0237
     66 H           2.0072   -1.2592    0.0000 H       1  UNL1        0.0237
     67 H           6.2491   -4.7848    0.0000 H       1  UNL1        0.0302
     68 H           7.0741   -4.8708    0.0000 H       1  UNL1        0.0302
     69 H           7.5974   -4.4945    0.0000 H       1  UNL1        0.0396
     70 H           2.1216    1.5305    0.0000 H       1  UNL1        0.2098
     71 H           8.4922   -2.5830    0.0000 H       1  UNL1        0.0275
     72 H           8.4485   -1.7073    0.0000 H       1  UNL1        0.0275
     73 H           7.5728   -1.7509    0.0000 H       1  UNL1        0.0275
     74 H           8.2702   -5.7216    0.0000 H       1  UNL1        0.0652
     75 H           9.4102   -3.1670    0.0000 H       1  UNL1        0.1032
     76 H           7.0804    2.0706    0.0000 H       1  UNL1        0.0689
     77 H           9.9894   -5.9037    0.0000 H       1  UNL1        0.1029
     78 H           8.7961   -1.6715    0.0000 H       1  UNL1        0.0661
     79 H           9.6430   -1.4446    0.0000 H       1  UNL1        0.0661
     80 H           9.4161   -0.5976    0.0000 H       1  UNL1        0.0661
     81 H           6.0253    3.7029    0.0000 H       1  UNL1        0.0626
     82 H           8.2834    2.7467    0.0000 H       1  UNL1        0.0623
     83 H           6.9086    5.1928    0.0000 H       1  UNL1        0.0623
     84 H           9.6956    3.5404    0.0000 H       1  UNL1        0.0618
     85 H           8.3209    5.9865    0.0000 H       1  UNL1        0.0618
     86 H           9.7144    5.1603    0.0000 H       1  UNL1        0.0618
@<TRIPOS>BOND
     1     1    14    1
     2     1    19    1
     3     2    15    1
     4     2    21    1
     5    16     3    1
     6     3    32    1
     7    17     4    1
     8     4    70    1
     9     5    29    1
    10     5    37    1
    11     6    29    2
    12     7    32    2
    13     8    34   ar
    14     8    36   ar
    15     9    10    1
    16     9    12    1
    17     9    16    1
    18     9    22    1
    19    10    13    1
    20    10    14    1
    21    10    45    1
    22    11    12    1
    23    11    15    1
    24    11    18    1
    25    11    24    1
    26    12    23    1
    27    12    46    1
    28    13    17    1
    29    13    19    1
    30    13    25    1
    31    14    15    1
    32    14    47    1
    33    15    48    1
    34    16    20    1
    35    16    49    1
    36    17    20    1
    37    17    50    1
    38    18    21    1
    39    18    26    2
    40    19    51    1
    41    19    52    1
    42    20    53    1
    43    20    54    1
    44    21    27    1
    45    21    55    1
    46    22    56    1
    47    22    57    1
    48    22    58    1
    49    23    29    1
    50    23    59    1
    51    23    60    1
    52    24    61    1
    53    24    62    1
    54    24    63    1
    55    25    64    1
    56    25    65    1
    57    25    66    1
    58    26    28    1
    59    26    30    1
    60    27    28    1
    61    27    67    1
    62    27    68    1
    63    28    31    1
    64    28    69    1
    65    30    71    1
    66    30    72    1
    67    30    73    1
    68    31    33   ar
    69    31    34   ar
    70    32    35    1
    71    33    36   ar
    72    33    74    1
    73    34    75    1
    74    35    38    2
    75    35    76    1
    76    36    77    1
    77    37    78    1
    78    37    79    1
    79    37    80    1
    80    38    39    1
    81    38    81    1
    82    39    40   ar
    83    39    41   ar
    84    40    42   ar
    85    40    82    1
    86    41    43   ar
    87    41    83    1
    88    42    44   ar
    89    42    84    1
    90    43    44   ar
    91    43    85    1
    92    44    86    1
