@<TRIPOS>MOLECULE
IMPHY012301
 27 27 0 0 0
SMALL
GASTEIGER

@<TRIPOS>ATOM
      1 O           4.3660    1.6160    0.0000 O.3     1  UNL1       -0.3813
      2 O           2.1340    0.7500    0.0000 O.2     1  UNL1       -0.2938
      3 C           3.0000   -0.7500    0.0000 C.3     1  UNL1        0.0263
      4 C           3.8660    0.7500    0.0000 C.3     1  UNL1        0.1213
      5 C           3.8660   -1.2500    0.0000 C.3     1  UNL1       -0.0410
      6 C           4.7320    0.2500    0.0000 C.3     1  UNL1       -0.0173
      7 C           4.7320   -0.7500    0.0000 C.3     1  UNL1       -0.0492
      8 C           3.0000    0.2500    0.0000 C.2     1  UNL1        0.1699
      9 C           2.5000   -1.6160    0.0000 C.3     1  UNL1       -0.0530
     10 C           2.0000   -0.7500    0.0000 C.3     1  UNL1       -0.0530
     11 C           3.3660    1.6160    0.0000 C.3     1  UNL1       -0.0291
     12 H           3.4675   -1.7250    0.0000 H       1  UNL1        0.0274
     13 H           4.2646   -1.7250    0.0000 H       1  UNL1        0.0274
     14 H           5.3426    0.1423    0.0000 H       1  UNL1        0.0297
     15 H           4.9441    0.8326    0.0000 H       1  UNL1        0.0297
     16 H           4.9441   -1.3326    0.0000 H       1  UNL1        0.0267
     17 H           5.3426   -0.6423    0.0000 H       1  UNL1        0.0267
     18 H           1.9631   -1.3060    0.0000 H       1  UNL1        0.0239
     19 H           2.1900   -2.1530    0.0000 H       1  UNL1        0.0239
     20 H           3.0369   -1.9260    0.0000 H       1  UNL1        0.0239
     21 H           2.0000   -0.1300    0.0000 H       1  UNL1        0.0239
     22 H           1.3800   -0.7500    0.0000 H       1  UNL1        0.0239
     23 H           2.0000   -1.3700    0.0000 H       1  UNL1        0.0239
     24 H           3.9030    1.9260    0.0000 H       1  UNL1        0.0261
     25 H           3.0560    2.1530    0.0000 H       1  UNL1        0.0261
     26 H           2.8291    1.3060    0.0000 H       1  UNL1        0.0261
     27 H           4.9860    1.6160    0.0000 H       1  UNL1        0.2107
@<TRIPOS>BOND
     1     1     4    1
     2     1    27    1
     3     2     8    2
     4     3     5    1
     5     3     8    1
     6     3     9    1
     7     3    10    1
     8     4     6    1
     9     4     8    1
    10     4    11    1
    11     5     7    1
    12     5    12    1
    13     5    13    1
    14     6     7    1
    15     6    14    1
    16     6    15    1
    17     7    16    1
    18     7    17    1
    19     9    18    1
    20     9    19    1
    21     9    20    1
    22    10    21    1
    23    10    22    1
    24    10    23    1
    25    11    24    1
    26    11    25    1
    27    11    26    1
