@<TRIPOS>MOLECULE
IMPHY002265
 47 52 0 0 0
SMALL
GASTEIGER

@<TRIPOS>ATOM
      1 O           7.8436   -0.3417    0.0000 O.3     1  UNL1       -0.3947
      2 N           3.7124    1.3953    0.0000 N.3     1  UNL1       -0.2940
      3 N           5.0363   -1.8135    0.0000 N.pl3   1  UNL1       -0.3365
      4 C           5.2455   -0.8417    0.0000 C.3     1  UNL1        0.0515
      5 C           4.3795   -0.3417    0.0000 C.3     1  UNL1        0.0367
      6 C           5.2455    1.1583    0.0000 C.3     1  UNL1        0.0102
      7 C           4.3795    0.6583    0.0000 C.3     1  UNL1        0.0318
      8 C           4.8795    0.1583    0.0000 C.3     1  UNL1       -0.0109
      9 C           6.1115   -0.3417    0.0000 C.3     1  UNL1        0.0054
     10 C           6.1115    0.6583    0.0000 C.3     1  UNL1       -0.0352
     11 C           3.4077   -0.1325    0.0000 C.3     1  UNL1       -0.0270
     12 C           3.6425   -1.0088    0.0000 C.ar    1  UNL1       -0.0168
     13 C           3.0546    0.9232    0.0000 C.3     1  UNL1        0.0005
     14 C           5.4666    2.1248    0.0000 C.2     1  UNL1       -0.0787
     15 C           3.8795    0.1583    0.0000 C.3     1  UNL1       -0.0596
     16 C           4.0476   -1.9166    0.0000 C.ar    1  UNL1        0.0314
     17 C           6.9776   -0.8417    0.0000 C.3     1  UNL1        0.0490
     18 C           3.7934    2.3834    0.0000 C.3     1  UNL1        0.0174
     19 C           4.7089    2.7641    0.0000 C.2     1  UNL1       -0.0734
     20 C           2.6144   -0.8856    0.0000 C.ar    1  UNL1       -0.0562
     21 C           3.4527   -2.7641    0.0000 C.ar    1  UNL1       -0.0406
     22 C           2.0000   -1.7191    0.0000 C.ar    1  UNL1       -0.0614
     23 C           2.4220   -2.6647    0.0000 C.ar    1  UNL1       -0.0600
     24 H           3.5424    0.8059    0.0000 H       1  UNL1        0.0481
     25 H           4.5243    0.6665    0.0000 H       1  UNL1        0.0328
     26 H           6.1115   -0.9617    0.0000 H       1  UNL1        0.0344
     27 H           6.7221    0.5506    0.0000 H       1  UNL1        0.0278
     28 H           6.3236    1.2409    0.0000 H       1  UNL1        0.0278
     29 H           2.7941   -0.2218    0.0000 H       1  UNL1        0.0287
     30 H           3.3867   -0.7522    0.0000 H       1  UNL1        0.0287
     31 H           5.4504   -2.2750    0.0000 H       1  UNL1        0.1467
     32 H           2.7451    1.4604    0.0000 H       1  UNL1        0.0427
     33 H           2.4892    0.6689    0.0000 H       1  UNL1        0.0427
     34 H           6.0547    2.3213    0.0000 H       1  UNL1        0.0576
     35 H           3.8795    0.7783    0.0000 H       1  UNL1        0.0233
     36 H           3.2595    0.1583    0.0000 H       1  UNL1        0.0233
     37 H           3.8795   -0.4617    0.0000 H       1  UNL1        0.0233
     38 H           6.5790   -1.3167    0.0000 H       1  UNL1        0.0560
     39 H           7.3761   -1.3167    0.0000 H       1  UNL1        0.0560
     40 H           3.6488    2.9863    0.0000 H       1  UNL1        0.0470
     41 H           3.1752    2.3359    0.0000 H       1  UNL1        0.0470
     42 H           4.8036    3.3768    0.0000 H       1  UNL1        0.0582
     43 H           2.3683   -0.3165    0.0000 H       1  UNL1        0.0621
     44 H           3.7119   -3.3273    0.0000 H       1  UNL1        0.0636
     45 H           8.3805   -0.6517    0.0000 H       1  UNL1        0.2094
     46 H           1.3836   -1.6525    0.0000 H       1  UNL1        0.0618
     47 H           2.0599   -3.1680    0.0000 H       1  UNL1        0.0618
@<TRIPOS>BOND
     1     1    17    1
     2     1    45    1
     3     2     7    1
     4     2    13    1
     5     2    18    1
     6     4     3    1
     7     3    16    1
     8     3    31    1
     9     4     5    1
    10     4     8    1
    11     4     9    1
    12     5     7    1
    13     5    11    1
    14     5    12    1
    15     6     7    1
    16     6     8    1
    17     6    10    1
    18     6    14    1
    19     7    24    1
    20     8    15    1
    21     8    25    1
    22     9    10    1
    23     9    17    1
    24     9    26    1
    25    10    27    1
    26    10    28    1
    27    11    13    1
    28    11    29    1
    29    11    30    1
    30    12    16   ar
    31    12    20   ar
    32    13    32    1
    33    13    33    1
    34    14    19    2
    35    14    34    1
    36    15    35    1
    37    15    36    1
    38    15    37    1
    39    16    21   ar
    40    17    38    1
    41    17    39    1
    42    18    19    1
    43    18    40    1
    44    18    41    1
    45    19    42    1
    46    20    22   ar
    47    20    43    1
    48    21    23   ar
    49    21    44    1
    50    22    23   ar
    51    22    46    1
    52    23    47    1
