@<TRIPOS>MOLECULE
IMPHY016059
 39 40 0 0 0
SMALL
GASTEIGER

@<TRIPOS>ATOM
      1 C           4.5981   -0.3724    0.0000 C.2     1  UNL1       -0.0629
      2 C           3.7320    0.1276    0.0000 C.3     1  UNL1        0.0012
      3 C           4.5981   -1.3724    0.0000 C.2     1  UNL1       -0.0669
      4 C           2.8660   -0.3724    0.0000 C.3     1  UNL1       -0.0336
      5 C           5.5443   -1.6771    0.0000 C.3     1  UNL1       -0.0222
      6 C           5.5443   -0.0676    0.0000 C.3     1  UNL1       -0.0304
      7 C           3.7320   -1.8724    0.0000 C.3     1  UNL1       -0.0309
      8 C           2.8660   -1.3724    0.0000 C.3     1  UNL1       -0.0459
      9 C           6.1279   -0.8724    0.0000 C.3     1  UNL1       -0.0430
     10 C           2.0000    0.1276    0.0000 C.3     1  UNL1       -0.0616
     11 C           5.8550   -2.6276    0.0000 C.3     1  UNL1       -0.0587
     12 C           3.7320    1.1276    0.0000 C.2     1  UNL1       -0.0779
     13 C           2.8660    1.6276    0.0000 C.2     1  UNL1       -0.0790
     14 C           2.8660    2.6276    0.0000 C.3     1  UNL1       -0.0440
     15 C           2.0000    1.1276    0.0000 C.3     1  UNL1       -0.0440
     16 H           4.2690    0.4376    0.0000 H       1  UNL1        0.0391
     17 H           2.8660    0.2476    0.0000 H       1  UNL1        0.0307
     18 H           5.1068   -2.1165    0.0000 H       1  UNL1        0.0343
     19 H           6.0817    0.2416    0.0000 H       1  UNL1        0.0310
     20 H           5.2933    0.4993    0.0000 H       1  UNL1        0.0310
     21 H           3.3335   -2.3473    0.0000 H       1  UNL1        0.0310
     22 H           4.1306   -2.3473    0.0000 H       1  UNL1        0.0310
     23 H           2.2554   -1.2647    0.0000 H       1  UNL1        0.0271
     24 H           2.6540   -1.9550    0.0000 H       1  UNL1        0.0271
     25 H           6.5888   -1.2871    0.0000 H       1  UNL1        0.0274
     26 H           6.5888   -0.4576    0.0000 H       1  UNL1        0.0274
     27 H           2.3100    0.6646    0.0000 H       1  UNL1        0.0233
     28 H           1.4631    0.4376    0.0000 H       1  UNL1        0.0233
     29 H           1.6900   -0.4093    0.0000 H       1  UNL1        0.0233
     30 H           5.2656   -2.8202    0.0000 H       1  UNL1        0.0235
     31 H           6.0476   -3.2170    0.0000 H       1  UNL1        0.0235
     32 H           6.4443   -2.4350    0.0000 H       1  UNL1        0.0235
     33 H           4.2690    1.4376    0.0000 H       1  UNL1        0.0577
     34 H           3.4860    2.6276    0.0000 H       1  UNL1        0.0274
     35 H           2.8660    3.2476    0.0000 H       1  UNL1        0.0274
     36 H           2.2460    2.6276    0.0000 H       1  UNL1        0.0274
     37 H           1.6900    1.6646    0.0000 H       1  UNL1        0.0274
     38 H           1.4631    0.8176    0.0000 H       1  UNL1        0.0274
     39 H           2.3100    0.5907    0.0000 H       1  UNL1        0.0274
@<TRIPOS>BOND
     1     1     2    1
     2     1     3    2
     3     1     6    1
     4     2     4    1
     5     2    12    1
     6     2    16    1
     7     3     5    1
     8     3     7    1
     9     4     8    1
    10     4    10    1
    11     4    17    1
    12     5     9    1
    13     5    11    1
    14     5    18    1
    15     6     9    1
    16     6    19    1
    17     6    20    1
    18     7     8    1
    19     7    21    1
    20     7    22    1
    21     8    23    1
    22     8    24    1
    23     9    25    1
    24     9    26    1
    25    10    27    1
    26    10    28    1
    27    10    29    1
    28    11    30    1
    29    11    31    1
    30    11    32    1
    31    12    13    2
    32    12    33    1
    33    13    14    1
    34    13    15    1
    35    14    34    1
    36    14    35    1
    37    14    36    1
    38    15    37    1
    39    15    38    1
    40    15    39    1
