@<TRIPOS>MOLECULE
IMPHY006250
 23 23 0 0 0
SMALL
GASTEIGER

@<TRIPOS>ATOM
      1 O           2.5369   -0.9330    0.0000 O.2     1  UNL1       -0.5034
      2 O           4.2690   -1.9330    0.0000 O.2     1  UNL1       -0.2838
      3 C           4.2690    1.0670    0.0000 C.3     1  UNL1        0.0056
      4 C           5.1350    0.5670    0.0000 C.2     1  UNL1       -0.0679
      5 C           3.4030    0.5670    0.0000 C.2     1  UNL1       -0.0293
      6 C           4.7690    1.9330    0.0000 C.3     1  UNL1       -0.0527
      7 C           3.7690    1.9330    0.0000 C.3     1  UNL1       -0.0527
      8 C           5.1350   -0.4330    0.0000 C.2     1  UNL1       -0.0032
      9 C           3.4030   -0.4330    0.0000 C.2     1  UNL1        0.1606
     10 C           4.2690   -0.9330    0.0000 C.2     1  UNL1        0.2223
     11 C           6.0010   -0.9330    0.0000 C.3     1  UNL1       -0.0362
     12 H           5.6720    0.8770    0.0000 H       1  UNL1        0.0584
     13 H           2.8660    0.8770    0.0000 H       1  UNL1        0.0618
     14 H           5.3059    1.6230    0.0000 H       1  UNL1        0.0241
     15 H           5.0790    2.4700    0.0000 H       1  UNL1        0.0241
     16 H           4.2320    2.2430    0.0000 H       1  UNL1        0.0241
     17 H           4.3059    2.2430    0.0000 H       1  UNL1        0.0241
     18 H           3.4590    2.4700    0.0000 H       1  UNL1        0.0241
     19 H           3.2320    1.6230    0.0000 H       1  UNL1        0.0241
     20 H           5.6910   -1.4700    0.0000 H       1  UNL1        0.0279
     21 H           6.5380   -1.2430    0.0000 H       1  UNL1        0.0279
     22 H           6.3110   -0.3961    0.0000 H       1  UNL1        0.0279
     23 H           2.0000   -0.6230    0.0000 H       1  UNL1        0.2923
@<TRIPOS>BOND
     1     1     9    1
     2     1    23    1
     3     2    10    2
     4     3     4    1
     5     3     5    1
     6     3     6    1
     7     3     7    1
     8     4     8    2
     9     4    12    1
    10     5     9    2
    11     5    13    1
    12     6    14    1
    13     6    15    1
    14     6    16    1
    15     7    17    1
    16     7    18    1
    17     7    19    1
    18     8    10    1
    19     8    11    1
    20     9    10    1
    21    11    20    1
    22    11    21    1
    23    11    22    1
