@<TRIPOS>MOLECULE
IMPHY009407
 39 40 0 0 0
SMALL
GASTEIGER

@<TRIPOS>ATOM
      1 O           2.8660    1.0427    0.0000 O.3     1  UNL1       -0.3911
      2 O           2.0000   -1.4573    0.0000 O.3     1  UNL1       -0.3887
      3 C           3.7320   -0.4573    0.0000 C.3     1  UNL1        0.0176
      4 C           3.7320    0.5427    0.0000 C.3     1  UNL1        0.0649
      5 C           2.8660   -0.9573    0.0000 C.3     1  UNL1        0.0660
      6 C           4.5981   -0.9573    0.0000 C.3     1  UNL1       -0.0194
      7 C           4.5981    1.0427    0.0000 C.3     1  UNL1       -0.0007
      8 C           5.4641   -0.4573    0.0000 C.ar    1  UNL1       -0.0405
      9 C           5.4641    0.5427    0.0000 C.ar    1  UNL1       -0.0386
     10 C           3.3660   -1.8233    0.0000 C.3     1  UNL1       -0.0360
     11 C           2.3660   -0.0913    0.0000 C.3     1  UNL1       -0.0360
     12 C           6.3580   -0.9920    0.0000 C.ar    1  UNL1       -0.0470
     13 C           6.3580    1.0774    0.0000 C.ar    1  UNL1       -0.0469
     14 C           7.2641   -0.4781    0.0000 C.ar    1  UNL1       -0.0583
     15 C           7.2641    0.5635    0.0000 C.ar    1  UNL1       -0.0583
     16 C           6.3465   -1.9919    0.0000 C.3     1  UNL1       -0.0394
     17 C           6.3465    2.0773    0.0000 C.3     1  UNL1       -0.0394
     18 H           3.7320   -1.0773    0.0000 H       1  UNL1        0.0357
     19 H           3.7320    1.1627    0.0000 H       1  UNL1        0.0600
     20 H           4.1996   -1.4322    0.0000 H       1  UNL1        0.0318
     21 H           4.9966   -1.4322    0.0000 H       1  UNL1        0.0318
     22 H           4.9966    1.5176    0.0000 H       1  UNL1        0.0338
     23 H           4.1996    1.5176    0.0000 H       1  UNL1        0.0338
     24 H           2.8291   -2.1333    0.0000 H       1  UNL1        0.0257
     25 H           3.6760   -2.3603    0.0000 H       1  UNL1        0.0257
     26 H           3.9030   -1.5133    0.0000 H       1  UNL1        0.0257
     27 H           2.9030    0.2187    0.0000 H       1  UNL1        0.0257
     28 H           2.0560    0.4457    0.0000 H       1  UNL1        0.0257
     29 H           1.8291   -0.4013    0.0000 H       1  UNL1        0.0257
     30 H           2.8660    1.6627    0.0000 H       1  UNL1        0.2098
     31 H           2.0000   -2.0773    0.0000 H       1  UNL1        0.2101
     32 H           7.7998   -0.7902    0.0000 H       1  UNL1        0.0620
     33 H           7.7998    0.8756    0.0000 H       1  UNL1        0.0620
     34 H           5.7265   -1.9847    0.0000 H       1  UNL1        0.0278
     35 H           6.3393   -2.6118    0.0000 H       1  UNL1        0.0278
     36 H           6.9664   -1.9991    0.0000 H       1  UNL1        0.0278
     37 H           6.9664    2.0845    0.0000 H       1  UNL1        0.0278
     38 H           6.3393    2.6973    0.0000 H       1  UNL1        0.0278
     39 H           5.7265    2.0701    0.0000 H       1  UNL1        0.0278
@<TRIPOS>BOND
     1     1     4    1
     2     1    30    1
     3     2     5    1
     4     2    31    1
     5     3     4    1
     6     3     5    1
     7     3     6    1
     8     3    18    1
     9     4     7    1
    10     4    19    1
    11     5    10    1
    12     5    11    1
    13     6     8    1
    14     6    20    1
    15     6    21    1
    16     7     9    1
    17     7    22    1
    18     7    23    1
    19     8     9   ar
    20     8    12   ar
    21     9    13   ar
    22    10    24    1
    23    10    25    1
    24    10    26    1
    25    11    27    1
    26    11    28    1
    27    11    29    1
    28    12    14   ar
    29    12    16    1
    30    13    15   ar
    31    13    17    1
    32    14    15   ar
    33    14    32    1
    34    15    33    1
    35    16    34    1
    36    16    35    1
    37    16    36    1
    38    17    37    1
    39    17    38    1
    40    17    39    1
