@<TRIPOS>MOLECULE
IMPHY007496
 83 88 0 0 0
SMALL
GASTEIGER

@<TRIPOS>ATOM
      1 O           8.6823   -0.0002    0.0000 O.3     1  UNL1       -0.3303
      2 O           8.6663   -3.0695    0.0000 O.3     1  UNL1       -0.4512
      3 O           6.9343   -2.0695    0.0000 O.3     1  UNL1       -0.4476
      4 O          10.4365   -2.0726    0.0000 O.3     1  UNL1       -0.3853
      5 O           6.9125   -0.0380    0.0000 O.3     1  UNL1       -0.4275
      6 O          10.4562    0.9756    0.0000 O.3     1  UNL1       -0.3924
      7 O           7.8003   -4.5695    0.0000 O.2     1  UNL1       -0.2449
      8 O           6.0682   -0.5695    0.0000 O.2     1  UNL1       -0.2449
      9 O           7.7611    1.4719    0.0000 O.2     1  UNL1       -0.2449
     10 O           4.9502   -5.4899    0.0000 O.3     1  UNL1       -0.5028
     11 O           4.3198   -4.6041    0.0000 O.3     1  UNL1       -0.5028
     12 O           9.3312   -5.6383    0.0000 O.3     1  UNL1       -0.5032
     13 O           7.0944   -6.9297    0.0000 O.3     1  UNL1       -0.5009
     14 O           2.5381   -1.5453    0.0000 O.3     1  UNL1       -0.5032
     15 O           2.5381   -3.5936    0.0000 O.3     1  UNL1       -0.5009
     16 O           5.1343    3.9417    0.0000 O.3     1  UNL1       -0.4476
     17 O           3.4371    0.9219    0.0000 O.3     1  UNL1       -0.5032
     18 O           3.4139    2.9217    0.0000 O.3     1  UNL1       -0.5009
     19 O           6.8778    2.9618    0.0000 O.3     1  UNL1       -0.5008
     20 O           8.5982    3.9817    0.0000 O.3     1  UNL1       -0.5008
     21 O           8.5750    5.9816    0.0000 O.3     1  UNL1       -0.5032
     22 O           5.0996    6.9415    0.0000 O.3     1  UNL1       -0.4770
     23 O           4.2510    5.4316    0.0000 O.2     1  UNL1       -0.2450
     24 C           8.6663   -2.0695    0.0000 C.3     1  UNL1        0.1741
     25 C           9.5763   -1.5626    0.0000 C.3     1  UNL1        0.1241
     26 C           7.8003   -1.5695    0.0000 C.3     1  UNL1        0.2042
     27 C           9.5844   -0.5210    0.0000 C.3     1  UNL1        0.1151
     28 C           7.7842   -0.5280    0.0000 C.3     1  UNL1        0.2464
     29 C          10.4523   -0.0244    0.0000 C.3     1  UNL1        0.0731
     30 C           7.8003   -3.5695    0.0000 C.2     1  UNL1        0.3405
     31 C           6.0682   -1.5695    0.0000 C.2     1  UNL1        0.3406
     32 C           6.9343   -3.0695    0.0000 C.ar    1  UNL1        0.0740
     33 C           5.2022   -2.0695    0.0000 C.ar    1  UNL1        0.0740
     34 C           6.0682   -3.5695    0.0000 C.ar    1  UNL1        0.0458
     35 C           5.2022   -3.0695    0.0000 C.ar    1  UNL1        0.0458
     36 C           6.9009    0.9619    0.0000 C.2     1  UNL1        0.3417
     37 C           8.3456   -3.6466    0.0000 C.ar    1  UNL1       -0.0017
     38 C           4.3083   -1.5348    0.0000 C.ar    1  UNL1       -0.0017
     39 C           5.8624   -5.0803    0.0000 C.ar    1  UNL1        0.1708
     40 C           4.3083   -3.6041    0.0000 C.ar    1  UNL1        0.1708
     41 C           6.0292    1.4519    0.0000 C.ar    1  UNL1        0.0662
     42 C           8.4488   -5.1679    0.0000 C.ar    1  UNL1        0.1628
     43 C           7.1283   -5.9302    0.0000 C.ar    1  UNL1        0.2012
     44 C           3.4022   -2.0487    0.0000 C.ar    1  UNL1        0.1628
     45 C           3.4022   -3.0903    0.0000 C.ar    1  UNL1        0.2012
     46 C           6.0176    2.4518    0.0000 C.ar    1  UNL1       -0.0015
     47 C           5.1690    0.9419    0.0000 C.ar    1  UNL1       -0.0023
     48 C           5.1459    2.9418    0.0000 C.ar    1  UNL1        0.1743
     49 C           4.2972    1.4318    0.0000 C.ar    1  UNL1        0.1628
     50 C           4.2857    2.4318    0.0000 C.ar    1  UNL1        0.2015
     51 C           5.9945    4.4517    0.0000 C.ar    1  UNL1        0.1876
     52 C           5.9829    5.4516    0.0000 C.ar    1  UNL1        0.1083
     53 C           6.8662    3.9617    0.0000 C.ar    1  UNL1        0.2060
     54 C           6.8431    5.9616    0.0000 C.ar    1  UNL1        0.0013
     55 C           7.7264    4.4717    0.0000 C.ar    1  UNL1        0.2044
     56 C           7.7149    5.4716    0.0000 C.ar    1  UNL1        0.1630
     57 C           5.1112    5.9416    0.0000 C.2     1  UNL1        0.3406
     58 H           9.3992   -2.5001    0.0000 H       1  UNL1        0.0801
     59 H           9.5680   -2.1826    0.0000 H       1  UNL1        0.0658
     60 H           7.0609   -1.1502    0.0000 H       1  UNL1        0.0837
     61 H           9.5856    0.0990    0.0000 H       1  UNL1        0.0647
     62 H           7.2515   -0.8452    0.0000 H       1  UNL1        0.1098
     63 H          10.6621   -0.6078    0.0000 H       1  UNL1        0.0584
     64 H          11.0633    0.0809    0.0000 H       1  UNL1        0.0584
     65 H          10.9770   -1.7688    0.0000 H       1  UNL1        0.2101
     66 H          10.9943    1.2835    0.0000 H       1  UNL1        0.2095
     67 H           8.8483   -3.2838    0.0000 H       1  UNL1        0.0664
     68 H           4.3154   -0.9149    0.0000 H       1  UNL1        0.0664
     69 H           6.5509    2.7680    0.0000 H       1  UNL1        0.0664
     70 H           5.1762    0.3219    0.0000 H       1  UNL1        0.0663
     71 H           4.8873   -6.1067    0.0000 H       1  UNL1        0.2923
     72 H           3.7865   -4.9203    0.0000 H       1  UNL1        0.2923
     73 H           9.3522   -6.2579    0.0000 H       1  UNL1        0.2923
     74 H           7.6206   -7.2577    0.0000 H       1  UNL1        0.2924
     75 H           2.5405   -0.9253    0.0000 H       1  UNL1        0.2923
     76 H           2.0000   -3.2857    0.0000 H       1  UNL1        0.2924
     77 H           2.8966    1.2256    0.0000 H       1  UNL1        0.2923
     78 H           3.4068    3.5417    0.0000 H       1  UNL1        0.2924
     79 H           6.8360    6.5815    0.0000 H       1  UNL1        0.0665
     80 H           7.4183    2.6580    0.0000 H       1  UNL1        0.2924
     81 H           9.1315    4.2979    0.0000 H       1  UNL1        0.2924
     82 H           8.5679    6.6016    0.0000 H       1  UNL1        0.2923
     83 H           5.6329    7.2577    0.0000 H       1  UNL1        0.2954
@<TRIPOS>BOND
     1     1    27    1
     2     1    28    1
     3     2    24    1
     4     2    30    1
     5     3    26    1
     6     3    31    1
     7    25     4    1
     8     4    65    1
     9    28     5    1
    10     5    36    1
    11     6    29    1
    12     6    66    1
    13     7    30    2
    14     8    31    2
    15     9    36    2
    16    10    39    1
    17    10    71    1
    18    11    40    1
    19    11    72    1
    20    12    42    1
    21    12    73    1
    22    13    43    1
    23    13    74    1
    24    14    44    1
    25    14    75    1
    26    15    45    1
    27    15    76    1
    28    16    48    1
    29    16    51    1
    30    17    49    1
    31    17    77    1
    32    18    50    1
    33    18    78    1
    34    19    53    1
    35    19    80    1
    36    20    55    1
    37    20    81    1
    38    21    56    1
    39    21    82    1
    40    22    57    1
    41    22    83    1
    42    23    57    2
    43    24    25    1
    44    24    26    1
    45    24    58    1
    46    25    27    1
    47    25    59    1
    48    26    28    1
    49    26    60    1
    50    27    29    1
    51    27    61    1
    52    28    62    1
    53    29    63    1
    54    29    64    1
    55    30    32    1
    56    31    33    1
    57    32    34   ar
    58    32    37   ar
    59    33    35   ar
    60    33    38   ar
    61    34    35    1
    62    34    39   ar
    63    35    40   ar
    64    36    41    1
    65    37    42   ar
    66    37    67    1
    67    38    44   ar
    68    38    68    1
    69    39    43   ar
    70    40    45   ar
    71    41    46   ar
    72    41    47   ar
    73    42    43   ar
    74    44    45   ar
    75    46    48   ar
    76    46    69    1
    77    47    49   ar
    78    47    70    1
    79    48    50   ar
    80    49    50   ar
    81    51    52   ar
    82    51    53   ar
    83    52    54   ar
    84    52    57    1
    85    53    55   ar
    86    54    56   ar
    87    54    79    1
    88    55    56   ar
