@<TRIPOS>MOLECULE
IMPHY014022
 39 42 0 0 0
SMALL
GASTEIGER

@<TRIPOS>ATOM
      1 S           5.0527    2.1238    0.0000 S.2     1  UNL1       -0.0400
      2 O           7.0864   -3.0762    0.0000 O.3     1  UNL1       -0.4795
      3 OXT         8.3780   -1.9222    0.0000 O.2     1  UNL1       -0.2492
      4 N           7.0547   -0.3900    0.0000 N.3     1  UNL1       -0.2952
      5 N           4.5274    0.7342    0.0000 N.ar    1  UNL1       -0.3564
      6 N           6.6311    2.9512    0.0000 N.am    1  UNL1       -0.3411
      7 C           6.3518    0.3787    0.0000 C.3     1  UNL1        0.0576
      8 C           6.6498    1.3332    0.0000 C.3     1  UNL1        0.0261
      9 C           5.3364    0.1464    0.0000 C.ar    1  UNL1        0.0381
     10 C           5.0274   -0.8046    0.0000 C.ar    1  UNL1       -0.0156
     11 C           7.5972    1.6532    0.0000 C.3     1  UNL1       -0.0272
     12 CA          6.7328   -1.3806    0.0000 C.3     1  UNL1        0.1103
     13 C           5.7123   -1.5894    0.0000 C.3     1  UNL1        0.0005
     14 C           6.0527    2.1354    0.0000 C.2     1  UNL1        0.0538
     15 C           7.5856    2.6532    0.0000 C.3     1  UNL1        0.0100
     16 C           4.0274   -0.8046    0.0000 C.ar    1  UNL1        0.0032
     17 C           3.7183    0.1464    0.0000 C.ar    1  UNL1        0.0470
     18 C           7.3991   -2.1264    0.0000 C.2     1  UNL1        0.3223
     19 C           3.3424   -1.5894    0.0000 C.ar    1  UNL1       -0.0523
     20 C           2.7029    0.3787    0.0000 C.ar    1  UNL1       -0.0378
     21 C           2.3219   -1.3806    0.0000 C.ar    1  UNL1       -0.0611
     22 C           2.0000   -0.3900    0.0000 C.ar    1  UNL1       -0.0598
     23 H           6.9570    0.5134    0.0000 H       1  UNL1        0.0531
     24 H           6.0386    1.2292    0.0000 H       1  UNL1        0.0386
     25 H           7.7331    1.0483    0.0000 H       1  UNL1        0.0287
     26 H           8.2130    1.7252    0.0000 H       1  UNL1        0.0287
     27 HA          7.3395   -1.2529    0.0000 H       1  UNL1        0.0579
     28 H           7.6607   -0.2588    0.0000 H       1  UNL1        0.1233
     29 H           5.1824   -1.9111    0.0000 H       1  UNL1        0.0334
     30 H           5.9387   -2.1666    0.0000 H       1  UNL1        0.0334
     31 H           8.2030    2.5955    0.0000 H       1  UNL1        0.0461
     32 H           7.7075    3.2611    0.0000 H       1  UNL1        0.0461
     33 H           4.5274    1.3542    0.0000 H       1  UNL1        0.1656
     34 H           6.4327    3.5386    0.0000 H       1  UNL1        0.1463
     35 H           3.5408   -2.1768    0.0000 H       1  UNL1        0.0624
     36 H           2.5182    0.9705    0.0000 H       1  UNL1        0.0638
     37 H           1.9088   -1.8430    0.0000 H       1  UNL1        0.0618
     38 H           1.3940   -0.2588    0.0000 H       1  UNL1        0.0618
     39 H           7.4995   -3.5386    0.0000 H       1  UNL1        0.2951
@<TRIPOS>BOND
     1     1    14    2
     2     2    18    1
     3     2    39    1
     4     3    18    2
     5     4     7    1
     6     4    12    1
     7     4    28    1
     8     5     9   ar
     9     5    17   ar
    10     5    33    1
    11     6    14    1
    12     6    15    1
    13     6    34    1
    14     7     8    1
    15     7     9    1
    16     7    23    1
    17     8    11    1
    18     8    14    1
    19     8    24    1
    20     9    10   ar
    21    10    13    1
    22    10    16   ar
    23    11    15    1
    24    11    25    1
    25    11    26    1
    26    12    13    1
    27    12    18    1
    28    12    27    1
    29    13    29    1
    30    13    30    1
    31    15    31    1
    32    15    32    1
    33    16    17   ar
    34    16    19   ar
    35    17    20   ar
    36    19    21   ar
    37    19    35    1
    38    20    22   ar
    39    20    36    1
    40    21    22   ar
    41    21    37    1
    42    22    38    1
