@<TRIPOS>MOLECULE
IMPHY009951
 40 43 0 0 0
SMALL
GASTEIGER

@<TRIPOS>ATOM
      1 O           4.6660   -1.5646    0.0000 O.2     1  UNL1       -0.4876
      2 O           4.6660    1.4354    0.0000 O.2     1  UNL1       -0.2918
      3 N           7.3321   -0.0438    0.0000 N.3     1  UNL1       -0.2985
      4 C           6.4260    0.4701    0.0000 C.3     1  UNL1        0.0237
      5 C           5.5321   -0.0646    0.0000 C.3     1  UNL1        0.0743
      6 C           5.5321   -1.0646    0.0000 C.3     1  UNL1        0.1126
      7 C           6.6361    1.4840    0.0000 C.3     1  UNL1       -0.0354
      8 C           7.3321   -1.0854    0.0000 C.3     1  UNL1        0.0026
      9 C           6.4260   -1.5993    0.0000 C.3     1  UNL1       -0.0022
     10 C           8.0944    0.6570    0.0000 C.3     1  UNL1       -0.0008
     11 C           7.6651    1.5993    0.0000 C.3     1  UNL1       -0.0388
     12 C           4.6660    0.4354    0.0000 C.2     1  UNL1        0.1710
     13 C           3.8000   -0.0646    0.0000 C.2     1  UNL1        0.0401
     14 C           3.8000   -1.0646    0.0000 C.2     1  UNL1        0.1274
     15 C           2.9061    0.4701    0.0000 C.3     1  UNL1       -0.0085
     16 C           2.0000   -0.0438    0.0000 C.3     1  UNL1       -0.0275
     17 C           2.9061   -1.5993    0.0000 C.2     1  UNL1       -0.0234
     18 C           2.9176    1.4700    0.0000 C.3     1  UNL1       -0.0579
     19 C           2.0000   -1.0854    0.0000 C.2     1  UNL1       -0.0800
     20 H           5.7332    0.9626    0.0000 H       1  UNL1        0.0471
     21 H           5.5255    0.7854    0.0000 H       1  UNL1        0.0433
     22 H           5.5255   -1.9146    0.0000 H       1  UNL1        0.0741
     23 H           6.6322    2.1040    0.0000 H       1  UNL1        0.0281
     24 H           6.0191    1.5453    0.0000 H       1  UNL1        0.0281
     25 H           7.5411   -1.6691    0.0000 H       1  UNL1        0.0428
     26 H           7.9429   -0.9793    0.0000 H       1  UNL1        0.0428
     27 H           6.0214   -2.0690    0.0000 H       1  UNL1        0.0313
     28 H           6.8196   -2.0783    0.0000 H       1  UNL1        0.0313
     29 H           8.4637    0.1589    0.0000 H       1  UNL1        0.0427
     30 H           8.6285    0.9719    0.0000 H       1  UNL1        0.0427
     31 H           8.2532    1.7956    0.0000 H       1  UNL1        0.0278
     32 H           7.5317    2.2047    0.0000 H       1  UNL1        0.0278
     33 H           2.3721    0.7852    0.0000 H       1  UNL1        0.0351
     34 H           1.7909    0.5399    0.0000 H       1  UNL1        0.0313
     35 H           1.3891   -0.1499    0.0000 H       1  UNL1        0.0313
     36 H           2.9132   -2.2192    0.0000 H       1  UNL1        0.0651
     37 H           3.5376    1.4628    0.0000 H       1  UNL1        0.0236
     38 H           2.9248    2.0900    0.0000 H       1  UNL1        0.0236
     39 H           2.2977    1.4772    0.0000 H       1  UNL1        0.0236
     40 H           1.4643   -1.3975    0.0000 H       1  UNL1        0.0573
@<TRIPOS>BOND
     1     1     6    1
     2     1    14    1
     3     2    12    2
     4     3     4    1
     5     3     8    1
     6     3    10    1
     7     4     5    1
     8     4     7    1
     9     4    20    1
    10     5     6    1
    11     5    12    1
    12     5    21    1
    13     6     9    1
    14     6    22    1
    15     7    11    1
    16     7    23    1
    17     7    24    1
    18     8     9    1
    19     8    25    1
    20     8    26    1
    21     9    27    1
    22     9    28    1
    23    10    11    1
    24    10    29    1
    25    10    30    1
    26    11    31    1
    27    11    32    1
    28    12    13    1
    29    13    14    2
    30    13    15    1
    31    14    17    1
    32    15    16    1
    33    15    18    1
    34    15    33    1
    35    16    19    1
    36    16    34    1
    37    16    35    1
    38    17    19    2
    39    17    36    1
    40    18    37    1
    41    18    38    1
    42    18    39    1
    43    19    40    1
