@<TRIPOS>MOLECULE
IMPHY017895
 30 30 0 0 0
SMALL
GASTEIGER

@<TRIPOS>ATOM
      1 C           2.8660    0.0000    0.0000 C.3     1  UNL1       -0.0385
      2 C           3.7320    0.5000    0.0000 C.3     1  UNL1       -0.0385
      3 C           2.8660   -1.0000    0.0000 C.3     1  UNL1       -0.0410
      4 C           4.5981   -0.0000    0.0000 C.3     1  UNL1       -0.0410
      5 C           3.7320   -1.5000    0.0000 C.3     1  UNL1       -0.0500
      6 C           4.5981   -1.0000    0.0000 C.3     1  UNL1       -0.0500
      7 C           2.0000    0.5000    0.0000 C.3     1  UNL1       -0.0619
      8 C           3.7320    1.5000    0.0000 C.3     1  UNL1       -0.0619
      9 C           2.0000   -1.5000    0.0000 C.3     1  UNL1       -0.0622
     10 C           5.4641    0.5000    0.0000 C.3     1  UNL1       -0.0622
     11 H           2.8660    0.6200    0.0000 H       1  UNL1        0.0303
     12 H           4.2690    0.8100    0.0000 H       1  UNL1        0.0303
     13 H           2.8660   -1.6200    0.0000 H       1  UNL1        0.0301
     14 H           5.1350   -0.3100    0.0000 H       1  UNL1        0.0301
     15 H           3.3335   -1.9750    0.0000 H       1  UNL1        0.0268
     16 H           4.1306   -1.9750    0.0000 H       1  UNL1        0.0268
     17 H           4.8101   -1.5826    0.0000 H       1  UNL1        0.0268
     18 H           5.2087   -0.8923    0.0000 H       1  UNL1        0.0268
     19 H           2.3100    1.0369    0.0000 H       1  UNL1        0.0233
     20 H           1.4631    0.8100    0.0000 H       1  UNL1        0.0233
     21 H           1.6900   -0.0369    0.0000 H       1  UNL1        0.0233
     22 H           4.3520    1.5000    0.0000 H       1  UNL1        0.0233
     23 H           3.7320    2.1200    0.0000 H       1  UNL1        0.0233
     24 H           3.1120    1.5000    0.0000 H       1  UNL1        0.0233
     25 H           1.6900   -0.9631    0.0000 H       1  UNL1        0.0233
     26 H           1.4631   -1.8100    0.0000 H       1  UNL1        0.0233
     27 H           2.3100   -2.0369    0.0000 H       1  UNL1        0.0233
     28 H           5.7741   -0.0369    0.0000 H       1  UNL1        0.0233
     29 H           6.0010    0.8100    0.0000 H       1  UNL1        0.0233
     30 H           5.1541    1.0369    0.0000 H       1  UNL1        0.0233
@<TRIPOS>BOND
     1     1     2    1
     2     1     3    1
     3     1     7    1
     4     1    11    1
     5     2     4    1
     6     2     8    1
     7     2    12    1
     8     3     5    1
     9     3     9    1
    10     3    13    1
    11     4     6    1
    12     4    10    1
    13     4    14    1
    14     5     6    1
    15     5    15    1
    16     5    16    1
    17     6    17    1
    18     6    18    1
    19     7    19    1
    20     7    20    1
    21     7    21    1
    22     8    22    1
    23     8    23    1
    24     8    24    1
    25     9    25    1
    26     9    26    1
    27     9    27    1
    28    10    28    1
    29    10    29    1
    30    10    30    1
