@<TRIPOS>MOLECULE
IMPHY012378
 39 43 0 0 0
SMALL
GASTEIGER

@<TRIPOS>ATOM
      1 O           7.1256    1.3396    0.0000 O.3     1  UNL1       -0.4530
      2 O           2.6079    0.0014    0.0000 O.3     1  UNL1       -0.4526
      3 O           2.6079    1.6778    0.0000 O.3     1  UNL1       -0.4526
      4 O           6.2596    2.8396    0.0000 O.2     1  UNL1       -0.2449
      5 N           5.4705   -1.8908    0.0000 N.3     1  UNL1       -0.3011
      6 C           6.2435   -1.2019    0.0000 C.3     1  UNL1        0.0269
      7 C           7.1415   -1.7296    0.0000 C.3     1  UNL1       -0.0053
      8 C           6.2596   -0.1604    0.0000 C.3     1  UNL1        0.0419
      9 C           6.9158   -2.7402    0.0000 C.3     1  UNL1       -0.0325
     10 C           7.1256    0.3396    0.0000 C.3     1  UNL1        0.1298
     11 C           5.8851   -2.8396    0.0000 C.3     1  UNL1       -0.0005
     12 C           8.0436   -1.2088    0.0000 C.2     1  UNL1       -0.0798
     13 C           5.3935    0.3396    0.0000 C.ar    1  UNL1       -0.0213
     14 C           8.0356   -0.1672    0.0000 C.2     1  UNL1       -0.0469
     15 C           4.4936   -1.6770    0.0000 C.3     1  UNL1       -0.0124
     16 C           5.3935    1.3396    0.0000 C.ar    1  UNL1        0.0663
     17 C           4.4996   -0.1950    0.0000 C.ar    1  UNL1       -0.0117
     18 C           6.2596    1.8396    0.0000 C.2     1  UNL1        0.3402
     19 C           4.4996    1.8743    0.0000 C.ar    1  UNL1       -0.0019
     20 C           3.5935    0.3188    0.0000 C.ar    1  UNL1        0.1665
     21 C           3.5935    1.3604    0.0000 C.ar    1  UNL1        0.1670
     22 C           2.0000    0.8396    0.0000 C.3     1  UNL1        0.2332
     23 H           5.4706   -0.8482    0.0000 H       1  UNL1        0.0475
     24 H           7.8266   -2.2328    0.0000 H       1  UNL1        0.0359
     25 H           5.5202   -0.5797    0.0000 H       1  UNL1        0.0404
     26 H           6.9101   -3.3602    0.0000 H       1  UNL1        0.0284
     27 H           7.5318   -2.8110    0.0000 H       1  UNL1        0.0284
     28 H           7.8584    0.7703    0.0000 H       1  UNL1        0.0786
     29 H           5.2941   -3.0268    0.0000 H       1  UNL1        0.0427
     30 H           6.0092   -3.4471    0.0000 H       1  UNL1        0.0427
     31 H           8.5817   -1.5168    0.0000 H       1  UNL1        0.0573
     32 H           8.5689    0.1490    0.0000 H       1  UNL1        0.0606
     33 H           4.6261   -1.0714    0.0000 H       1  UNL1        0.0391
     34 H           3.8879   -1.5445    0.0000 H       1  UNL1        0.0391
     35 H           4.3610   -2.2827    0.0000 H       1  UNL1        0.0391
     36 H           4.5068   -0.8150    0.0000 H       1  UNL1        0.0658
     37 H           4.5068    2.4942    0.0000 H       1  UNL1        0.0663
     38 H           1.5391    1.2543    0.0000 H       1  UNL1        0.1166
     39 H           1.5391    0.4249    0.0000 H       1  UNL1        0.1166
@<TRIPOS>BOND
     1     1    10    1
     2     1    18    1
     3     2    20    1
     4     2    22    1
     5     3    21    1
     6     3    22    1
     7     4    18    2
     8     5     6    1
     9     5    11    1
    10     5    15    1
    11     6     7    1
    12     6     8    1
    13     6    23    1
    14     7     9    1
    15     7    12    1
    16     7    24    1
    17     8    10    1
    18     8    13    1
    19     8    25    1
    20     9    11    1
    21     9    26    1
    22     9    27    1
    23    10    14    1
    24    10    28    1
    25    11    29    1
    26    11    30    1
    27    12    14    2
    28    12    31    1
    29    13    16   ar
    30    13    17   ar
    31    14    32    1
    32    15    33    1
    33    15    34    1
    34    15    35    1
    35    16    18    1
    36    16    19   ar
    37    17    20   ar
    38    17    36    1
    39    19    21   ar
    40    19    37    1
    41    20    21   ar
    42    22    38    1
    43    22    39    1
