@<TRIPOS>MOLECULE
IMPHY014593
 88 91 0 0 0
SMALL
GASTEIGER

@<TRIPOS>ATOM
      1 O           6.6213   -2.3892    0.0000 O.3     1  UNL1       -0.3875
      2 O           2.8660   -1.7680    0.0000 O.3     1  UNL1       -0.4571
      3 O           7.5876    2.9580    0.0000 O.3     1  UNL1       -0.3907
      4 O           4.4514    1.9885    0.0000 O.3     1  UNL1       -0.3799
      5 O           9.3196   -0.0420    0.0000 O.3     1  UNL1       -0.4550
      6 O           5.5860    2.5617    0.0000 O.2     1  UNL1       -0.2936
      7 O           3.7320   -3.2680    0.0000 O.2     1  UNL1       -0.2511
      8 O          10.1857    1.4580    0.0000 O.2     1  UNL1       -0.2478
      9 O          11.0517   -1.0420    0.0000 O.3     1  UNL1       -0.3788
     10 N          11.9177    1.4580    0.0000 N.3     1  UNL1       -0.2988
     11 C           4.7384   -0.6870    0.0000 C.3     1  UNL1       -0.0051
     12 C           5.4501   -1.3235    0.0000 C.3     1  UNL1        0.0012
     13 C           6.7216    1.4580    0.0000 C.3     1  UNL1        0.0588
     14 C           4.5430    0.2476    0.0000 C.2     1  UNL1       -0.0259
     15 C           4.5756   -1.7734    0.0000 C.3     1  UNL1       -0.0055
     16 C           6.4006   -1.4139    0.0000 C.3     1  UNL1        0.0774
     17 C           3.7320   -1.2680    0.0000 C.3     1  UNL1        0.1246
     18 C           6.7216    0.4580    0.0000 C.3     1  UNL1       -0.0136
     19 C           4.9399    1.1160    0.0000 C.3     1  UNL1        0.1355
     20 C           7.5876    1.9580    0.0000 C.3     1  UNL1        0.0713
     21 C           3.7162   -0.2847    0.0000 C.2     1  UNL1       -0.0301
     22 C           7.5876   -0.0420    0.0000 C.2     1  UNL1       -0.0300
     23 C           5.7746    1.5797    0.0000 C.2     1  UNL1        0.1743
     24 C           8.4536    0.4580    0.0000 C.3     1  UNL1        0.1267
     25 C           8.4536    1.4580    0.0000 C.3     1  UNL1        0.0153
     26 C           3.5884   -0.6870    0.0000 C.3     1  UNL1       -0.0556
     27 C           4.1634   -1.6829    0.0000 C.3     1  UNL1       -0.0556
     28 C           7.2194   -0.9230    0.0000 C.2     1  UNL1       -0.0529
     29 C           6.7216    2.4580    0.0000 C.3     1  UNL1       -0.0500
     30 C           2.8345    0.1870    0.0000 C.3     1  UNL1       -0.0400
     31 C           2.8660   -2.7680    0.0000 C.2     1  UNL1        0.3045
     32 C          10.1857    0.4580    0.0000 C.2     1  UNL1        0.3385
     33 C          11.0517   -0.0420    0.0000 C.3     1  UNL1        0.1711
     34 C           2.0000   -3.2680    0.0000 C.3     1  UNL1        0.0333
     35 C          11.9177    0.4580    0.0000 C.3     1  UNL1        0.0717
     36 C          12.7837   -0.0420    0.0000 C.ar    1  UNL1       -0.0273
     37 C          12.7837    1.9580    0.0000 C.3     1  UNL1       -0.0124
     38 C          11.0517    1.9580    0.0000 C.3     1  UNL1       -0.0124
     39 C          12.7837   -1.0420    0.0000 C.ar    1  UNL1       -0.0570
     40 C          13.6498    0.4580    0.0000 C.ar    1  UNL1       -0.0570
     41 C          13.6498   -1.5420    0.0000 C.ar    1  UNL1       -0.0615
     42 C          14.5158   -0.0420    0.0000 C.ar    1  UNL1       -0.0615
     43 C          14.5158   -1.0420    0.0000 C.ar    1  UNL1       -0.0617
     44 H           5.7154   -2.1310    0.0000 H       1  UNL1        0.0338
     45 H           4.1645   -2.2374    0.0000 H       1  UNL1        0.0308
     46 H           4.9560   -2.2630    0.0000 H       1  UNL1        0.0308
     47 H           6.9706   -1.6577    0.0000 H       1  UNL1        0.0641
     48 H           3.1926   -0.9623    0.0000 H       1  UNL1        0.0782
     49 H           6.1110    0.5657    0.0000 H       1  UNL1        0.0321
     50 H           6.5095   -0.1246    0.0000 H       1  UNL1        0.0321
     51 H           8.1245    2.2680    0.0000 H       1  UNL1        0.0604
     52 H           4.3769    1.3756    0.0000 H       1  UNL1        0.0721
     53 H           8.9905    0.7680    0.0000 H       1  UNL1        0.0783
     54 H           9.0642    1.3503    0.0000 H       1  UNL1        0.0329
     55 H           8.6656    2.0406    0.0000 H       1  UNL1        0.0329
     56 H           3.5884   -0.0670    0.0000 H       1  UNL1        0.0238
     57 H           2.9684   -0.6870    0.0000 H       1  UNL1        0.0238
     58 H           3.5884   -1.3070    0.0000 H       1  UNL1        0.0238
     59 H           3.6265   -1.3729    0.0000 H       1  UNL1        0.0238
     60 H           3.8534   -2.2198    0.0000 H       1  UNL1        0.0238
     61 H           4.7004   -1.9929    0.0000 H       1  UNL1        0.0238
     62 H           7.6883   -1.3286    0.0000 H       1  UNL1        0.0598
     63 H           7.3416    2.4580    0.0000 H       1  UNL1        0.0240
     64 H           6.7216    3.0780    0.0000 H       1  UNL1        0.0240
     65 H           6.1015    2.4580    0.0000 H       1  UNL1        0.0240
     66 H           3.1270    0.7337    0.0000 H       1  UNL1        0.0276
     67 H           2.2878    0.4795    0.0000 H       1  UNL1        0.0276
     68 H           2.5420   -0.3596    0.0000 H       1  UNL1        0.0276
     69 H           7.2135   -2.5730    0.0000 H       1  UNL1        0.2102
     70 H           8.1245    3.2680    0.0000 H       1  UNL1        0.2098
     71 H           3.8314    1.9967    0.0000 H       1  UNL1        0.2108
     72 H          11.5886   -0.3520    0.0000 H       1  UNL1        0.0730
     73 H           1.6900   -2.7311    0.0000 H       1  UNL1        0.0342
     74 H           1.4631   -3.5780    0.0000 H       1  UNL1        0.0342
     75 H           2.3100   -3.8049    0.0000 H       1  UNL1        0.0342
     76 H          11.3808    0.7680    0.0000 H       1  UNL1        0.0543
     77 H          10.5147   -1.3520    0.0000 H       1  UNL1        0.2106
     78 H          13.0937    1.4211    0.0000 H       1  UNL1        0.0391
     79 H          13.3207    2.2680    0.0000 H       1  UNL1        0.0391
     80 H          12.4737    2.4949    0.0000 H       1  UNL1        0.0391
     81 H          11.3617    2.4949    0.0000 H       1  UNL1        0.0391
     82 H          10.5147    2.2680    0.0000 H       1  UNL1        0.0391
     83 H          10.7417    1.4211    0.0000 H       1  UNL1        0.0391
     84 H          12.2468   -1.3520    0.0000 H       1  UNL1        0.0621
     85 H          13.6498    1.0780    0.0000 H       1  UNL1        0.0621
     86 H          13.6498   -2.1620    0.0000 H       1  UNL1        0.0618
     87 H          15.0527    0.2680    0.0000 H       1  UNL1        0.0618
     88 H          15.0527   -1.3520    0.0000 H       1  UNL1        0.0618
@<TRIPOS>BOND
     1     1    16    1
     2     1    69    1
     3    17     2    1
     4     2    31    1
     5    20     3    1
     6     3    70    1
     7    19     4    1
     8     4    71    1
     9    24     5    1
    10     5    32    1
    11     6    23    2
    12     7    31    2
    13     8    32    2
    14    33     9    1
    15     9    77    1
    16    35    10    1
    17    10    37    1
    18    10    38    1
    19    11    12    1
    20    11    14    1
    21    11    26    1
    22    11    27    1
    23    12    15    1
    24    12    16    1
    25    12    44    1
    26    13    18    1
    27    13    20    1
    28    13    23    1
    29    13    29    1
    30    14    19    1
    31    14    21    2
    32    15    17    1
    33    15    45    1
    34    15    46    1
    35    16    28    1
    36    16    47    1
    37    17    21    1
    38    17    48    1
    39    18    22    1
    40    18    49    1
    41    18    50    1
    42    19    23    1
    43    19    52    1
    44    20    25    1
    45    20    51    1
    46    21    30    1
    47    22    24    1
    48    22    28    2
    49    24    25    1
    50    24    53    1
    51    25    54    1
    52    25    55    1
    53    26    56    1
    54    26    57    1
    55    26    58    1
    56    27    59    1
    57    27    60    1
    58    27    61    1
    59    28    62    1
    60    29    63    1
    61    29    64    1
    62    29    65    1
    63    30    66    1
    64    30    67    1
    65    30    68    1
    66    31    34    1
    67    32    33    1
    68    33    35    1
    69    33    72    1
    70    34    73    1
    71    34    74    1
    72    34    75    1
    73    35    36    1
    74    35    76    1
    75    36    39   ar
    76    36    40   ar
    77    37    78    1
    78    37    79    1
    79    37    80    1
    80    38    81    1
    81    38    82    1
    82    38    83    1
    83    39    41   ar
    84    39    84    1
    85    40    42   ar
    86    40    85    1
    87    41    43   ar
    88    41    86    1
    89    42    43   ar
    90    42    87    1
    91    43    88    1
